$ Spice netlist generated by v2lvs
$ v2012.3_31.26    Wed Oct 3 10:58:10 PDT 2012

.SUBCKT system clk rst start motor_done nvm_input_address[11] 
+ nvm_input_address[10] nvm_input_address[9] nvm_input_address[8] 
+ nvm_input_address[7] nvm_input_address[6] nvm_input_address[5] 
+ nvm_input_address[4] nvm_input_address[3] nvm_input_address[2] 
+ nvm_input_address[1] nvm_input_address[0] zero one done motor_move 
+ motor_direction[0] 
Xcamera_module_algo_module_direc_reg_reg_q_0 dff $PINS Q=motor_direction[0] 
+ QB=#dummy[0] D=nx22543 CLK=clk 
Xix22544 mux21_ni $PINS Y=nx22543 A0=motor_direction[0] A1=nx27166 S0=nx27156 
Xix1134 oai21 $PINS Y=nx1133 A0=nx35686 A1=nx34038 B0=nx34027 
Xcamera_module_algo_module_modCU_reg_current_state_0 dff $PINS 
+ Q=camera_module_algo_module_regs_rst QB=#dummy[1] D=nx1133 CLK=clk 
Xix1222 nor03_2x $PINS Y=nx1221 A0=nx22568 A1=rst A2=nx33608 
Xix22569 nand03 $PINS Y=nx22568 A0=nx512 A1=nx23021 A2=nx622 
Xix513 nor03_2x $PINS Y=nx512 A0=camera_module_algo_module_address_value_1 
+ A1=camera_module_algo_module_address_value_3 
+ A2=camera_module_algo_module_address_value_2 
Xix1154 mux21_ni $PINS Y=nx1153 A0=nx448 
+ A1=camera_module_algo_module_address_value_1 S0=nx22973 
Xix449 oai32 $PINS Y=nx448 A0=nx22575 A1=nx34138 
+ A2=camera_module_algo_module_prev_cont_enable B0=nx35684 B1=nx35796 
Xix22576 xnor2 $PINS Y=nx22575 A0=nx22577 A1=nx22931 
Xix22578 mux21_ni $PINS Y=nx22577 A0=nx37094 A1=nx23021 S0=one 
Xix1074 oai21 $PINS Y=nx1073 A0=nx22585 A1=nx34036 B0=nx22587 
Xcamera_module_algo_module_modCU_reg_current_state_6 dff $PINS 
+ Q=camera_module_algo_module_modCU_current_state_6 QB=nx22585 D=nx1073 CLK=clk 
Xix1064 oai22 $PINS Y=nx1063 A0=nx22595 A1=nx34036 B0=rst B1=nx22597 
Xcamera_module_algo_module_modCU_reg_current_state_5 dff $PINS 
+ Q=camera_module_algo_module_modCU_current_state_5 QB=nx22595 D=nx1063 CLK=clk 
Xix1054 oai22 $PINS Y=nx1053 A0=nx22597 A1=nx34036 B0=rst B1=nx22601 
Xix309 nor02_2x $PINS Y=nx308 A0=rst A1=nx22605 
Xix22606 aoi22 $PINS Y=nx22605 A0=camera_module_algo_module_nvm_address_enable 
+ A1=camera_module_ack_from_DMA 
+ B0=camera_module_algo_module_modCU_current_state_12 B1=nx22568 
Xix954 oai22 $PINS Y=nx953 A0=nx22611 A1=nx34036 B0=rst B1=nx22613 
Xcamera_module_algo_module_modCU_reg_current_state_2 dff $PINS 
+ Q=camera_module_algo_module_nvm_address_enable QB=nx22611 D=nx953 CLK=clk 
Xix22614 aoi21 $PINS Y=nx22613 A0=start 
+ A1=camera_module_algo_module_modCU_current_state_1 
+ B0=camera_module_algo_module_prev_cont_enable 
Xcamera_module_algo_module_modCU_reg_current_state_1 dff $PINS 
+ Q=camera_module_algo_module_modCU_current_state_1 QB=#dummy[2] D=nx22523 
+ CLK=clk 
Xcamera_module_algo_module_modCU_reg_current_state_13 dff $PINS 
+ Q=camera_module_algo_module_modCU_current_state_13 QB=nx22565 D=nx1221 CLK=clk 
Xcamera_module_algo_module_modCU_reg_current_state_14 dff $PINS 
+ Q=camera_module_algo_module_modCU_current_state_14 QB=#dummy[3] D=nx22481 
+ CLK=clk 
Xix22482 nor03_2x $PINS Y=nx22481 A0=nx22627 A1=rst A2=nx22565 
Xix22628 xnor2 $PINS Y=nx22627 A0=nx26956 A1=nx27038 
Xix26957 oai22 $PINS Y=nx26956 A0=nx22631 A1=nx33816 B0=nx33810 
+ B1=camera_module_algo_module_prev_cont_value_15 
Xcamera_module_algo_module_curr_cont_reg_reg_q_15 dff $PINS 
+ Q=camera_module_algo_module_current_cont_value_15 QB=nx33810 D=nx22273 CLK=clk 
Xcamera_module_algo_module_Addout_reg_reg_q_15 dff $PINS 
+ Q=camera_module_algo_module_Addout_value_15 QB=#dummy[4] D=nx22263 CLK=clk 
Xix26545 xnor2 $PINS Y=nx26544 A0=nx26504 A1=nx33790 
Xix26505 oai22 $PINS Y=nx26504 A0=nx22645 A1=nx33765 B0=nx33779 B1=nx33776 
Xix22646 aoi22 $PINS Y=nx22645 A0=camera_module_algo_module_diff_value_13 
+ A1=camera_module_algo_module_current_cont_value_13 B0=nx26356 B1=nx933 
Xcamera_module_algo_module_diff_reg_reg_q_13 dff $PINS 
+ Q=camera_module_algo_module_diff_value_13 QB=nx22651 D=nx22213 CLK=clk 
Xix22654 aoi21 $PINS Y=nx22653 A0=zero A1=nx34118 B0=nx26412 
Xix26413 nor03_2x $PINS Y=nx26412 A0=nx34118 A1=nx35700 A2=nx33384 
Xix1254 mux21_ni $PINS Y=nx1253 A0=zero 
+ A1=camera_module_algo_module_pixel_value_8 S0=nx37152 
Xcamera_module_algo_module_pixel_reg_reg_q_8 dff $PINS 
+ Q=camera_module_algo_module_pixel_value_8 QB=#dummy[5] D=nx1253 CLK=clk 
Xcamera_module_algo_module_modCU_reg_current_state_3 dff $PINS 
+ Q=camera_module_algo_module_pixel_enable QB=nx22601 D=nx1043 CLK=clk 
Xix22670 aoi21 $PINS Y=nx22669 A0=nx37086 A1=nx25422 B0=nx704 
Xix25423 oai21 $PINS Y=nx25422 A0=nx35708 A1=nx22681 B0=nx22679 
Xix22678 oai21 $PINS Y=nx22677 A0=camera_module_algo_module_pixel_value_8 
+ A1=nx35670 B0=nx22679 
Xix22680 nand02 $PINS Y=nx22679 A0=nx35670 
+ A1=camera_module_algo_module_pixel_value_8 
Xix22682 aoi21 $PINS Y=nx22681 A0=nx37086 A1=nx25414 B0=nx704 
Xix25415 oai21 $PINS Y=nx25414 A0=nx35708 A1=nx22685 B0=nx22679 
Xix22686 aoi21 $PINS Y=nx22685 A0=nx37086 A1=nx25406 B0=nx704 
Xix25407 oai21 $PINS Y=nx25406 A0=nx35708 A1=nx22689 B0=nx22679 
Xix22690 aoi21 $PINS Y=nx22689 A0=nx25398 A1=nx37086 B0=nx704 
Xix25399 oai22 $PINS Y=nx25398 A0=nx22693 A1=nx32243 B0=nx33382 B1=nx25374 
Xix22694 aoi22 $PINS Y=nx22693 A0=camera_module_algo_module_pixel_value_6 
+ A1=nx22699 B0=nx19850 B1=nx22616 
Xcamera_module_algo_module_pixel_reg_reg_q_6 dff $PINS 
+ Q=camera_module_algo_module_pixel_value_6 QB=#dummy[6] D=nx19243 CLK=clk 
Xix19244 mux21_ni $PINS Y=nx19243 A0=nx22608 
+ A1=camera_module_algo_module_pixel_value_6 S0=nx37152 
Xix22700 mux21_ni $PINS Y=nx22699 A0=nx22701 A1=nx35674 S0=nx36792 
Xix22702 nor04 $PINS Y=nx22701 A0=nx22588 A1=nx21934 A2=nx21278 A3=nx20624 
Xix22589 nand04 $PINS Y=nx22588 A0=nx22705 A1=nx23302 A2=nx23413 A3=nx23520 
Xix22706 oai21 $PINS Y=nx22705 A0=nx22578 A1=nx22500 B0=nx36448 
Xix22579 nand04 $PINS Y=nx22578 A0=nx22709 A1=nx23138 A2=nx23165 A3=nx23189 
Xix22710 aoi22 $PINS Y=nx22709 A0=camera_module_cache_ram_0__6 A1=nx37030 
+ B0=camera_module_cache_ram_16__6 B1=nx37032 
Xcamera_module_cache_reg_ram_0__6 dffr $PINS Q=camera_module_cache_ram_0__6 
+ QB=#dummy[7] D=nx19233 CLK=clk R=rst 
Xix19234 mux21_ni $PINS Y=nx19233 A0=camera_module_cache_ram_0__6 A1=nx35520 
+ S0=nx35134 
Xix19971 oai221 $PINS Y=nx19970 A0=nx34072 A1=nx22851 B0=nx22871 B1=nx35712 
+ C0=nx22874 
Xix994 oai32 $PINS Y=nx993 A0=nx22719 A1=nx34070 A2=nx34042 B0=nx22846 
+ B1=nx22779 
Xcamera_module_DMA_module_R_Cache_addr_reg_q_3 dff $PINS Q=#dummy[8] QB=nx22719 
+ D=nx993 CLK=clk 
Xcamera_module_DMA_module_controlUnit_reg_state_0 dff $PINS 
+ Q=camera_module_DMA_module_signals_1 QB=#dummy[9] D=nx20 CLK=clk 
Xcamera_module_DMA_module_controlUnit_reg_state_5 dff $PINS 
+ Q=camera_module_ack_from_DMA QB=nx22844 D=nx294 CLK=clk 
Xix295 nor03_2x $PINS Y=nx294 A0=nx22727 A1=rst A2=nx22795 
Xix22728 nand04 $PINS Y=nx22727 A0=camera_module_cache_address_from_DMA_7 
+ A1=camera_module_cache_address_from_DMA_6 
+ A2=camera_module_cache_address_from_DMA_5 
+ A3=camera_module_cache_address_from_DMA_4 
Xcamera_module_DMA_module_R_Cache_addr_reg_q_7 dff $PINS 
+ Q=camera_module_cache_address_from_DMA_7 QB=#dummy[10] D=nx1033 CLK=clk 
Xix1034 mux21_ni $PINS Y=nx1033 A0=nx276 
+ A1=camera_module_cache_address_from_DMA_7 S0=nx22779 
Xix269 xnor2 $PINS Y=nx268 A0=nx264 A1=nx22841 
Xix265 oai22 $PINS Y=nx264 A0=nx22739 A1=nx22831 B0=nx35672 B1=nx22835 
Xix22740 aoi22 $PINS Y=nx22739 A0=zero 
+ A1=camera_module_cache_address_from_DMA_5 B0=nx216 B1=nx897 
Xcamera_module_DMA_module_R_Cache_addr_reg_q_5 dff $PINS 
+ Q=camera_module_cache_address_from_DMA_5 QB=#dummy[11] D=nx1013 CLK=clk 
Xix1014 mux21_ni $PINS Y=nx1013 A0=nx226 
+ A1=camera_module_cache_address_from_DMA_5 S0=nx37154 
Xix219 xnor2 $PINS Y=nx218 A0=nx216 A1=nx22827 
Xix217 oai22 $PINS Y=nx216 A0=nx22749 A1=nx22815 B0=nx35672 B1=nx22821 
Xix22750 aoi22 $PINS Y=nx22749 A0=zero A1=nx34072 B0=nx126 B1=nx128 
Xix127 oai22 $PINS Y=nx126 A0=nx22753 A1=nx22777 B0=nx35670 B1=nx37106 
Xix22754 aoi22 $PINS Y=nx22753 A0=zero A1=nx34098 B0=nx78 B1=nx889 
Xix974 oai32 $PINS Y=nx973 A0=nx37096 A1=nx34066 A2=nx34040 B0=nx22805 
+ B1=nx37154 
Xcamera_module_DMA_module_R_Cache_addr_reg_q_1 dff $PINS Q=#dummy[12] 
+ QB=nx22757 D=nx973 CLK=clk 
Xix179 nor02_2x $PINS Y=nx178 A0=rst A1=nx22761 
Xix22762 aoi221 $PINS Y=nx22761 A0=camera_module_DMA_module_controlUnit_state_4 
+ A1=nx22727 B0=nx34040 B1=nx35712 C0=camera_module_DMA_module_signals_4 
Xcamera_module_DMA_module_controlUnit_reg_state_4 dff $PINS 
+ Q=camera_module_DMA_module_controlUnit_state_4 QB=nx22795 D=nx160 CLK=clk 
Xix161 nor03_2x $PINS Y=nx160 A0=nx35712 A1=rst A2=nx37028 
Xix984 oai32 $PINS Y=nx983 A0=nx37106 A1=nx34066 A2=nx34040 B0=nx22773 
+ B1=nx37154 
Xcamera_module_DMA_module_R_Cache_addr_reg_q_2 dff $PINS Q=#dummy[13] 
+ QB=nx22771 D=nx983 CLK=clk 
Xix22776 xnor2 $PINS Y=nx22775 A0=nx22753 A1=nx22777 
Xix964 oai32 $PINS Y=nx963 A0=nx37156 A1=nx34066 A2=nx34040 B0=nx22787 
+ B1=nx37154 
Xcamera_module_DMA_module_R_Cache_addr_reg_q_0 dff $PINS 
+ Q=camera_module_cache_address_from_DMA_0 QB=#dummy[14] D=nx963 CLK=clk 
Xix57 xnor2 $PINS Y=nx56 A0=one A1=nx22791 
Xcamera_module_DMA_module_controlUnit_reg_state_3 dff $PINS 
+ Q=camera_module_write_from_DMA QB=#dummy[15] D=nx178 CLK=clk 
Xcamera_module_DMA_module_controlUnit_reg_state_2 dff $PINS 
+ Q=camera_module_DMA_module_signals_4 QB=#dummy[16] D=nx48 CLK=clk 
Xcamera_module_DMA_module_controlUnit_reg_state_1 dff $PINS 
+ Q=camera_module_DMA_module_controlUnit_state_1 QB=#dummy[17] D=nx36 CLK=clk 
Xix37 nor02_2x $PINS Y=nx36 A0=rst A1=nx22801 
Xix22802 aoi21 $PINS Y=nx22801 A0=nx22611 
+ A1=camera_module_DMA_module_controlUnit_state_1 B0=nx34066 
Xix81 xnor2 $PINS Y=nx80 A0=nx78 A1=nx22811 
Xix1004 oai32 $PINS Y=nx1003 A0=nx22821 A1=nx34068 A2=nx34040 B0=nx22823 
+ B1=nx37154 
Xcamera_module_DMA_module_R_Cache_addr_reg_q_4 dff $PINS 
+ Q=camera_module_cache_address_from_DMA_4 QB=nx22821 D=nx1003 CLK=clk 
Xix22826 xnor2 $PINS Y=nx22825 A0=nx22749 A1=nx22815 
Xix22828 xnor2 $PINS Y=nx22827 A0=camera_module_cache_address_from_DMA_5 
+ A1=zero 
Xix1024 oai32 $PINS Y=nx1023 A0=nx22835 A1=nx34068 A2=nx34040 B0=nx22837 
+ B1=nx37154 
Xcamera_module_DMA_module_R_Cache_addr_reg_q_6 dff $PINS 
+ Q=camera_module_cache_address_from_DMA_6 QB=nx22835 D=nx1023 CLK=clk 
Xix22840 xnor2 $PINS Y=nx22839 A0=nx22739 A1=nx22831 
Xix22842 xnor2 $PINS Y=nx22841 A0=camera_module_cache_address_from_DMA_7 
+ A1=zero 
Xix131 xnor2 $PINS Y=nx130 A0=nx126 A1=nx22849 
Xnvm_module_tri_dataout_126 tri01 $PINS Y=nvm_data_126 A=nx22549 
+ E=nvm_module_GND0 
Xnvm_module_tri_dataout_118 tri01 $PINS Y=nvm_data_118 A=nx22549 
+ E=nvm_module_GND0 
Xnvm_module_tri_dataout_110 tri01 $PINS Y=nvm_data_110 A=nx22549 
+ E=nvm_module_GND0 
Xnvm_module_tri_dataout_102 tri01 $PINS Y=nvm_data_102 A=nx22549 
+ E=nvm_module_GND0 
Xnvm_module_tri_dataout_94 tri01 $PINS Y=nvm_data_94 A=nx22549 
+ E=nvm_module_GND0 
Xnvm_module_tri_dataout_86 tri01 $PINS Y=nvm_data_86 A=nx22549 
+ E=nvm_module_GND0 
Xnvm_module_tri_dataout_78 tri01 $PINS Y=nvm_data_78 A=nx22549 
+ E=nvm_module_GND0 
Xnvm_module_tri_dataout_70 tri01 $PINS Y=nvm_data_70 A=nx22549 
+ E=nvm_module_GND0 
Xix22872 inv01 $PINS Y=nx22871 A=nvm_data_6 
Xnvm_module_tri_dataout_6 tri01 $PINS Y=nvm_data_6 A=nx22549 E=nvm_module_GND0 
Xix22875 nand02 $PINS Y=nx22874 A0=nx34072 A1=nx19904 
Xnvm_module_tri_dataout_62 tri01 $PINS Y=nvm_data_62 A=nx22549 
+ E=nvm_module_GND0 
Xnvm_module_tri_dataout_54 tri01 $PINS Y=nvm_data_54 A=nx22549 
+ E=nvm_module_GND0 
Xnvm_module_tri_dataout_46 tri01 $PINS Y=nvm_data_46 A=nx22549 
+ E=nvm_module_GND0 
Xnvm_module_tri_dataout_38 tri01 $PINS Y=nvm_data_38 A=nx22549 
+ E=nvm_module_GND0 
Xix19873 oai22 $PINS Y=nx19872 A0=nx34098 A1=nx22887 B0=nx34080 B1=nx22891 
Xnvm_module_tri_dataout_30 tri01 $PINS Y=nvm_data_30 A=nx22549 
+ E=nvm_module_GND0 
Xnvm_module_tri_dataout_22 tri01 $PINS Y=nvm_data_22 A=nx22549 
+ E=nvm_module_GND0 
Xix22892 nand02 $PINS Y=nx22891 A0=nvm_data_14 A1=nx34100 
Xnvm_module_tri_dataout_14 tri01 $PINS Y=nvm_data_14 A=nx22549 
+ E=nvm_module_GND0 
Xix1491 nand02 $PINS Y=nx1490 A0=nx22897 A1=nx23073 
Xix22898 nor02_2x $PINS Y=nx22897 A0=nx1050 A1=nx1024 
Xix1039 xnor2 $PINS Y=nx1038 A0=nx1004 A1=nx23033 
Xix1005 oai22 $PINS Y=nx1004 A0=nx22907 A1=nx23012 B0=nx23011 B1=nx37196 
Xcamera_module_algo_module_Address_reg_reg_q_5 dff $PINS 
+ Q=camera_module_algo_module_address_value_5 QB=nx23011 D=nx1193 CLK=clk 
Xix1194 mux21_ni $PINS Y=nx1193 A0=nx552 
+ A1=camera_module_algo_module_address_value_5 S0=nx37198 
Xix553 oai32 $PINS Y=nx552 A0=nx22912 A1=nx34120 
+ A2=camera_module_algo_module_prev_cont_enable B0=nx35672 B1=nx35786 
Xix22913 xnor2 $PINS Y=nx22912 A0=nx22915 A1=nx22907 
Xix22916 aoi22 $PINS Y=nx22915 A0=camera_module_algo_module_address_value_4 
+ A1=nx34140 B0=nx518 B1=nx905 
Xcamera_module_algo_module_Address_reg_reg_q_4 dff $PINS 
+ Q=camera_module_algo_module_address_value_4 QB=#dummy[18] D=nx1183 CLK=clk 
Xix1184 mux21_ni $PINS Y=nx1183 A0=nx528 
+ A1=camera_module_algo_module_address_value_4 S0=nx37198 
Xix521 xnor2 $PINS Y=nx520 A0=nx518 A1=nx23006 
Xix519 oai22 $PINS Y=nx518 A0=nx22923 A1=nx22997 B0=nx23005 B1=nx37196 
Xix22924 aoi22 $PINS Y=nx22923 A0=camera_module_algo_module_address_value_2 
+ A1=nx34140 B0=nx460 B1=nx903 
Xcamera_module_algo_module_Address_reg_reg_q_2 dff $PINS 
+ Q=camera_module_algo_module_address_value_2 QB=#dummy[19] D=nx1163 CLK=clk 
Xix1164 mux21_ni $PINS Y=nx1163 A0=nx470 
+ A1=camera_module_algo_module_address_value_2 S0=nx37198 
Xix463 xnor2 $PINS Y=nx462 A0=nx460 A1=nx22951 
Xix461 oai22 $PINS Y=nx460 A0=nx22577 A1=nx22931 B0=nx22935 B1=nx37196 
Xix437 xnor2 $PINS Y=nx436 A0=zero A1=nx37094 
Xcamera_module_algo_module_Address_reg_reg_q_1 dff $PINS 
+ Q=camera_module_algo_module_address_value_1 QB=nx22935 D=nx1153 CLK=clk 
Xix1094 oai21 $PINS Y=nx1093 A0=nx22943 A1=nx34036 B0=nx22945 
Xcamera_module_algo_module_modCU_reg_current_state_8 dff $PINS Q=#dummy[20] 
+ QB=nx22943 D=nx1093 CLK=clk 
Xix22946 nand03 $PINS Y=nx22945 A0=nx35692 
+ A1=camera_module_algo_module_modCU_current_state_7 A2=nx34036 
Xcamera_module_algo_module_modCU_reg_current_state_7 dff $PINS 
+ Q=camera_module_algo_module_modCU_current_state_7 QB=#dummy[21] D=nx1083 
+ CLK=clk 
Xcamera_module_algo_module_modCU_reg_current_state_16 dff $PINS 
+ Q=camera_module_algo_module_prev_cont_enable QB=#dummy[22] D=nx22513 CLK=clk 
Xix22514 ao32 $PINS Y=nx22513 A0=motor_move A1=motor_done A2=nx35692 
+ B0=camera_module_algo_module_prev_cont_enable B1=nx35696 
Xcamera_module_algo_module_modCU_reg_current_state_15 dff $PINS Q=motor_move 
+ QB=#dummy[23] D=nx22503 CLK=clk 
Xix27085 nor02_2x $PINS Y=nx27084 A0=rst A1=nx22961 
Xix22962 aoi22 $PINS Y=nx22961 A0=nx22963 
+ A1=camera_module_algo_module_modCU_current_state_14 
+ B0=camera_module_algo_module_modCU_current_state_13 B1=nx22627 
Xix22494 mux21_ni $PINS Y=nx22493 A0=nx27068 
+ A1=camera_module_algo_module_failure_count_value_0 S0=nx22968 
Xcamera_module_algo_module_fail_count_reg_reg_q_0 dff $PINS 
+ Q=camera_module_algo_module_failure_count_value_0 QB=nx22963 D=nx22493 CLK=clk 
Xix22969 nor03_2x $PINS Y=nx22968 
+ A0=camera_module_algo_module_modCU_current_state_14 A1=motor_move A2=nx34118 
Xix1124 oai21 $PINS Y=nx1123 A0=nx22979 A1=nx34036 B0=nx22981 
Xcamera_module_algo_module_modCU_reg_current_state_11 dff $PINS Q=#dummy[24] 
+ QB=nx22979 D=nx1123 CLK=clk 
Xix1114 oai21 $PINS Y=nx1113 A0=nx22987 A1=nx34038 B0=nx22989 
Xcamera_module_algo_module_modCU_reg_current_state_10 dff $PINS 
+ Q=camera_module_algo_module_modCU_current_state_10 QB=nx22987 D=nx1113 CLK=clk 
Xix1104 oai22 $PINS Y=nx1103 A0=nx22993 A1=nx34038 B0=rst B1=nx22943 
Xcamera_module_algo_module_modCU_reg_current_state_9 dff $PINS Q=#dummy[25] 
+ QB=nx22993 D=nx1103 CLK=clk 
Xcamera_module_algo_module_Address_reg_reg_q_3 dff $PINS 
+ Q=camera_module_algo_module_address_value_3 QB=nx23005 D=nx1173 CLK=clk 
Xix1174 mux21_ni $PINS Y=nx1173 A0=nx496 
+ A1=camera_module_algo_module_address_value_3 S0=nx37198 
Xix497 oai32 $PINS Y=nx496 A0=nx23003 A1=nx34118 
+ A2=camera_module_algo_module_prev_cont_enable B0=nx35672 B1=nx35786 
Xix23004 xnor2 $PINS Y=nx23003 A0=nx22923 A1=nx22997 
Xix23013 aoi22 $PINS Y=nx23012 A0=camera_module_algo_module_address_value_4 
+ A1=nx426 B0=nx932 B1=nx934 
Xix427 xnor2 $PINS Y=nx426 A0=one A1=nx37094 
Xix933 oai22 $PINS Y=nx932 A0=nx22997 A1=nx23016 B0=nx23005 B1=nx37196 
Xix23017 aoi22 $PINS Y=nx23016 A0=camera_module_algo_module_address_value_2 
+ A1=nx34142 B0=nx903 B1=nx860 
Xix861 oai22 $PINS Y=nx860 A0=nx22935 A1=nx37196 B0=nx22931 B1=nx23019 
Xix23020 mux21_ni $PINS Y=nx23019 A0=nx37094 A1=nx23021 S0=zero 
Xix1144 mux21_ni $PINS Y=nx1143 A0=nx418 
+ A1=camera_module_algo_module_address_value_0 S0=nx37198 
Xix419 oai32 $PINS Y=nx418 A0=nx23026 A1=nx34120 
+ A2=camera_module_algo_module_prev_cont_enable B0=nx35672 B1=nx35786 
Xcamera_module_algo_module_Address_reg_reg_q_0 dff $PINS 
+ Q=camera_module_algo_module_address_value_0 QB=nx23021 D=nx1143 CLK=clk 
Xcamera_module_algo_module_Address_reg_reg_q_6 dff $PINS 
+ Q=camera_module_algo_module_address_value_6 QB=#dummy[26] D=nx1203 CLK=clk 
Xix1204 mux21_ni $PINS Y=nx1203 A0=nx576 
+ A1=camera_module_algo_module_address_value_6 S0=nx37198 
Xix569 xnor2 $PINS Y=nx568 A0=nx566 A1=nx23033 
Xix567 oai22 $PINS Y=nx566 A0=nx22915 A1=nx22907 B0=nx23011 B1=nx37196 
Xcamera_module_algo_module_modCU_reg_current_state_4 dff $PINS Q=#dummy[27] 
+ QB=nx22597 D=nx1053 CLK=clk 
Xix1017 oai32 $PINS Y=nx1016 A0=camera_module_algo_module_modCU_current_state_6 
+ A1=camera_module_algo_module_modCU_current_state_10 A2=nx23051 B0=nx35804 
+ B1=nx23069 
Xix23054 xnor2 $PINS Y=nx23053 A0=nx23055 A1=nx23059 
Xix23056 aoi22 $PINS Y=nx23055 A0=camera_module_algo_module_address_value_6 
+ A1=nx34142 B0=nx566 B1=nx908 
Xcamera_module_algo_module_Address_reg_reg_q_7 dff $PINS 
+ Q=camera_module_algo_module_address_value_7 QB=nx23067 D=nx1213 CLK=clk 
Xix1214 mux21_ni $PINS Y=nx1213 A0=nx602 
+ A1=camera_module_algo_module_address_value_7 S0=nx22973 
Xix603 oai32 $PINS Y=nx602 A0=nx23053 A1=nx34120 
+ A2=camera_module_algo_module_prev_cont_enable B0=nx35672 B1=nx35786 
Xix23070 xnor2 $PINS Y=nx23069 A0=nx23071 A1=nx23059 
Xix23072 aoi22 $PINS Y=nx23071 A0=camera_module_algo_module_address_value_6 
+ A1=nx34142 B0=nx908 B1=nx1004 
Xix23074 nor02_2x $PINS Y=nx23073 A0=nx980 A1=nx954 
Xix969 xnor2 $PINS Y=nx968 A0=nx932 A1=nx23079 
Xix23080 xnor2 $PINS Y=nx23079 A0=camera_module_algo_module_address_value_4 
+ A1=nx426 
Xix947 oai32 $PINS Y=nx946 A0=camera_module_algo_module_modCU_current_state_6 
+ A1=camera_module_algo_module_modCU_current_state_10 A2=nx23084 B0=nx35804 
+ B1=nx23087 
Xix23088 xnor2 $PINS Y=nx23087 A0=nx23012 A1=nx22907 
Xix5651 nand02 $PINS Y=nx5650 A0=nx23091 A1=nx23105 
Xix23092 nor02_2x $PINS Y=nx23091 A0=nx906 A1=nx880 
Xix895 xnor2 $PINS Y=nx894 A0=nx860 A1=nx22951 
Xix873 oai32 $PINS Y=nx872 A0=camera_module_algo_module_modCU_current_state_6 
+ A1=camera_module_algo_module_modCU_current_state_10 A2=nx23100 B0=nx35804 
+ B1=nx23102 
Xix23103 xnor2 $PINS Y=nx23102 A0=nx23016 A1=nx22997 
Xix23106 nor02_2x $PINS Y=nx23105 A0=nx836 A1=nx810 
Xix829 oai32 $PINS Y=nx828 A0=camera_module_algo_module_modCU_current_state_6 
+ A1=camera_module_algo_module_modCU_current_state_10 A2=nx23111 B0=nx35804 
+ B1=nx23113 
Xix803 oai32 $PINS Y=nx802 A0=camera_module_algo_module_modCU_current_state_6 
+ A1=camera_module_algo_module_modCU_current_state_10 A2=nx23117 B0=nx23119 
+ B1=nx35806 
Xix23120 xnor2 $PINS Y=nx23119 A0=nx23019 A1=nx22931 
Xcamera_module_cache_reg_ram_16__6 dffr $PINS Q=camera_module_cache_ram_16__6 
+ QB=#dummy[28] D=nx19223 CLK=clk R=rst 
Xix19224 mux21_ni $PINS Y=nx19223 A0=camera_module_cache_ram_16__6 A1=nx35520 
+ S0=nx35130 
Xix1473 nand02 $PINS Y=nx1472 A0=nx23130 A1=nx22897 
Xix23139 aoi22 $PINS Y=nx23138 A0=camera_module_cache_ram_32__6 A1=nx37034 
+ B0=camera_module_cache_ram_48__6 B1=nx37036 
Xcamera_module_cache_reg_ram_32__6 dffr $PINS Q=camera_module_cache_ram_32__6 
+ QB=#dummy[29] D=nx19213 CLK=clk R=rst 
Xix19214 mux21_ni $PINS Y=nx19213 A0=camera_module_cache_ram_32__6 A1=nx35520 
+ S0=nx35126 
Xix1453 nand02 $PINS Y=nx1452 A0=nx23145 A1=nx22897 
Xcamera_module_cache_reg_ram_48__6 dffr $PINS Q=camera_module_cache_ram_48__6 
+ QB=#dummy[30] D=nx19203 CLK=clk R=rst 
Xix19204 mux21_ni $PINS Y=nx19203 A0=camera_module_cache_ram_48__6 A1=nx35520 
+ S0=nx35122 
Xix1435 nand02 $PINS Y=nx1434 A0=nx23157 A1=nx22897 
Xix987 nand02 $PINS Y=nx986 A0=nx980 A1=nx954 
Xix23166 aoi22 $PINS Y=nx23165 A0=camera_module_cache_ram_64__6 A1=nx37038 
+ B0=camera_module_cache_ram_80__6 B1=nx37040 
Xcamera_module_cache_reg_ram_64__6 dffr $PINS Q=camera_module_cache_ram_64__6 
+ QB=#dummy[31] D=nx19193 CLK=clk R=rst 
Xix19194 mux21_ni $PINS Y=nx19193 A0=camera_module_cache_ram_64__6 A1=nx35520 
+ S0=nx35118 
Xix1411 nand02 $PINS Y=nx1410 A0=nx23172 A1=nx23073 
Xcamera_module_cache_reg_ram_80__6 dffr $PINS Q=camera_module_cache_ram_80__6 
+ QB=#dummy[32] D=nx19183 CLK=clk R=rst 
Xix19184 mux21_ni $PINS Y=nx19183 A0=camera_module_cache_ram_80__6 A1=nx35520 
+ S0=nx35114 
Xix1393 nand02 $PINS Y=nx1392 A0=nx23172 A1=nx23130 
Xix23190 aoi22 $PINS Y=nx23189 A0=camera_module_cache_ram_112__6 A1=nx37042 
+ B0=camera_module_cache_ram_96__6 B1=nx37044 
Xcamera_module_cache_reg_ram_112__6 dffr $PINS Q=camera_module_cache_ram_112__6 
+ QB=#dummy[33] D=nx19163 CLK=clk R=rst 
Xix19164 mux21_ni $PINS Y=nx19163 A0=camera_module_cache_ram_112__6 A1=nx35520 
+ S0=nx35106 
Xix1355 nand02 $PINS Y=nx1354 A0=nx23172 A1=nx23157 
Xcamera_module_cache_reg_ram_96__6 dffr $PINS Q=camera_module_cache_ram_96__6 
+ QB=#dummy[34] D=nx19173 CLK=clk R=rst 
Xix19174 mux21_ni $PINS Y=nx19173 A0=camera_module_cache_ram_96__6 A1=nx35522 
+ S0=nx35110 
Xix1373 nand02 $PINS Y=nx1372 A0=nx23172 A1=nx23145 
Xix22501 nand04 $PINS Y=nx22500 A0=nx23211 A1=nx23236 A2=nx23256 A3=nx23282 
Xix23212 aoi22 $PINS Y=nx23211 A0=camera_module_cache_ram_128__6 A1=nx37046 
+ B0=camera_module_cache_ram_144__6 B1=nx37048 
Xcamera_module_cache_reg_ram_128__6 dffr $PINS Q=camera_module_cache_ram_128__6 
+ QB=#dummy[35] D=nx19153 CLK=clk R=rst 
Xix19154 mux21_ni $PINS Y=nx19153 A0=camera_module_cache_ram_128__6 A1=nx35522 
+ S0=nx35102 
Xix1327 nand02 $PINS Y=nx1326 A0=nx23218 A1=nx23073 
Xcamera_module_cache_reg_ram_144__6 dffr $PINS Q=camera_module_cache_ram_144__6 
+ QB=#dummy[36] D=nx19143 CLK=clk R=rst 
Xix19144 mux21_ni $PINS Y=nx19143 A0=camera_module_cache_ram_144__6 A1=nx35522 
+ S0=nx35098 
Xix1309 nand02 $PINS Y=nx1308 A0=nx23218 A1=nx23130 
Xix23237 aoi22 $PINS Y=nx23236 A0=camera_module_cache_ram_176__6 A1=nx37050 
+ B0=camera_module_cache_ram_160__6 B1=nx37052 
Xcamera_module_cache_reg_ram_176__6 dffr $PINS Q=camera_module_cache_ram_176__6 
+ QB=#dummy[37] D=nx19123 CLK=clk R=rst 
Xix19124 mux21_ni $PINS Y=nx19123 A0=camera_module_cache_ram_176__6 A1=nx35522 
+ S0=nx35090 
Xix1271 nand02 $PINS Y=nx1270 A0=nx23218 A1=nx23157 
Xcamera_module_cache_reg_ram_160__6 dffr $PINS Q=camera_module_cache_ram_160__6 
+ QB=#dummy[38] D=nx19133 CLK=clk R=rst 
Xix19134 mux21_ni $PINS Y=nx19133 A0=camera_module_cache_ram_160__6 A1=nx35522 
+ S0=nx35094 
Xix1289 nand02 $PINS Y=nx1288 A0=nx23218 A1=nx23145 
Xix23257 aoi22 $PINS Y=nx23256 A0=camera_module_cache_ram_192__6 A1=nx36288 
+ B0=camera_module_cache_ram_208__6 B1=nx36328 
Xcamera_module_cache_reg_ram_192__6 dffr $PINS Q=camera_module_cache_ram_192__6 
+ QB=#dummy[39] D=nx19113 CLK=clk R=rst 
Xix19114 mux21_ni $PINS Y=nx19113 A0=camera_module_cache_ram_192__6 A1=nx35522 
+ S0=nx35086 
Xix1057 nand02 $PINS Y=nx1056 A0=nx1050 A1=nx1024 
Xcamera_module_cache_reg_ram_208__6 dffr $PINS Q=camera_module_cache_ram_208__6 
+ QB=#dummy[40] D=nx19103 CLK=clk R=rst 
Xix19104 mux21_ni $PINS Y=nx19103 A0=camera_module_cache_ram_208__6 A1=nx35522 
+ S0=nx35082 
Xix23283 aoi22 $PINS Y=nx23282 A0=camera_module_cache_ram_224__6 A1=nx36368 
+ B0=camera_module_cache_ram_240__6 B1=nx36408 
Xcamera_module_cache_reg_ram_224__6 dffr $PINS Q=camera_module_cache_ram_224__6 
+ QB=#dummy[41] D=nx19093 CLK=clk R=rst 
Xix19094 mux21_ni $PINS Y=nx19093 A0=camera_module_cache_ram_224__6 A1=nx35524 
+ S0=nx35078 
Xcamera_module_cache_reg_ram_240__6 dffr $PINS Q=camera_module_cache_ram_240__6 
+ QB=#dummy[42] D=nx19083 CLK=clk R=rst 
Xix19084 mux21_ni $PINS Y=nx19083 A0=camera_module_cache_ram_240__6 A1=nx35524 
+ S0=nx35074 
Xix23299 nor02_2x $PINS Y=nx23298 A0=nx1056 A1=nx986 
Xix23303 oai21 $PINS Y=nx23302 A0=nx22416 A1=nx22338 B0=nx36452 
Xix22417 nand04 $PINS Y=nx22416 A0=nx23305 A1=nx23324 A2=nx23337 A3=nx23349 
Xix23306 aoi22 $PINS Y=nx23305 A0=camera_module_cache_ram_1__6 A1=nx37030 
+ B0=camera_module_cache_ram_17__6 B1=nx37032 
Xcamera_module_cache_reg_ram_1__6 dffr $PINS Q=camera_module_cache_ram_1__6 
+ QB=#dummy[43] D=nx19073 CLK=clk R=rst 
Xix19074 mux21_ni $PINS Y=nx19073 A0=camera_module_cache_ram_1__6 A1=nx35524 
+ S0=nx35064 
Xix5359 nand02 $PINS Y=nx5358 A0=nx23314 A1=nx23091 
Xcamera_module_cache_reg_ram_17__6 dffr $PINS Q=camera_module_cache_ram_17__6 
+ QB=#dummy[44] D=nx19063 CLK=clk R=rst 
Xix19064 mux21_ni $PINS Y=nx19063 A0=camera_module_cache_ram_17__6 A1=nx35524 
+ S0=nx35060 
Xix23325 aoi22 $PINS Y=nx23324 A0=camera_module_cache_ram_33__6 A1=nx37034 
+ B0=camera_module_cache_ram_49__6 B1=nx37036 
Xcamera_module_cache_reg_ram_33__6 dffr $PINS Q=camera_module_cache_ram_33__6 
+ QB=#dummy[45] D=nx19053 CLK=clk R=rst 
Xix19054 mux21_ni $PINS Y=nx19053 A0=camera_module_cache_ram_33__6 A1=nx35524 
+ S0=nx35056 
Xcamera_module_cache_reg_ram_49__6 dffr $PINS Q=camera_module_cache_ram_49__6 
+ QB=#dummy[46] D=nx19043 CLK=clk R=rst 
Xix19044 mux21_ni $PINS Y=nx19043 A0=camera_module_cache_ram_49__6 A1=nx35524 
+ S0=nx35052 
Xix23338 aoi22 $PINS Y=nx23337 A0=camera_module_cache_ram_65__6 A1=nx37038 
+ B0=camera_module_cache_ram_81__6 B1=nx37040 
Xcamera_module_cache_reg_ram_65__6 dffr $PINS Q=camera_module_cache_ram_65__6 
+ QB=#dummy[47] D=nx19033 CLK=clk R=rst 
Xix19034 mux21_ni $PINS Y=nx19033 A0=camera_module_cache_ram_65__6 A1=nx35524 
+ S0=nx35048 
Xcamera_module_cache_reg_ram_81__6 dffr $PINS Q=camera_module_cache_ram_81__6 
+ QB=#dummy[48] D=nx19023 CLK=clk R=rst 
Xix19024 mux21_ni $PINS Y=nx19023 A0=camera_module_cache_ram_81__6 A1=nx35526 
+ S0=nx35044 
Xix23350 aoi22 $PINS Y=nx23349 A0=camera_module_cache_ram_113__6 A1=nx37042 
+ B0=camera_module_cache_ram_97__6 B1=nx37044 
Xcamera_module_cache_reg_ram_113__6 dffr $PINS Q=camera_module_cache_ram_113__6 
+ QB=#dummy[49] D=nx19003 CLK=clk R=rst 
Xix19004 mux21_ni $PINS Y=nx19003 A0=camera_module_cache_ram_113__6 A1=nx35526 
+ S0=nx35036 
Xcamera_module_cache_reg_ram_97__6 dffr $PINS Q=camera_module_cache_ram_97__6 
+ QB=#dummy[50] D=nx19013 CLK=clk R=rst 
Xix19014 mux21_ni $PINS Y=nx19013 A0=camera_module_cache_ram_97__6 A1=nx35526 
+ S0=nx35040 
Xix22339 nand04 $PINS Y=nx22338 A0=nx23361 A1=nx23372 A2=nx23385 A3=nx23400 
Xix23362 aoi22 $PINS Y=nx23361 A0=camera_module_cache_ram_129__6 A1=nx37046 
+ B0=camera_module_cache_ram_145__6 B1=nx37048 
Xcamera_module_cache_reg_ram_129__6 dffr $PINS Q=camera_module_cache_ram_129__6 
+ QB=#dummy[51] D=nx18993 CLK=clk R=rst 
Xix18994 mux21_ni $PINS Y=nx18993 A0=camera_module_cache_ram_129__6 A1=nx35526 
+ S0=nx35032 
Xcamera_module_cache_reg_ram_145__6 dffr $PINS Q=camera_module_cache_ram_145__6 
+ QB=#dummy[52] D=nx18983 CLK=clk R=rst 
Xix18984 mux21_ni $PINS Y=nx18983 A0=camera_module_cache_ram_145__6 A1=nx35526 
+ S0=nx35028 
Xix23373 aoi22 $PINS Y=nx23372 A0=camera_module_cache_ram_177__6 A1=nx37050 
+ B0=camera_module_cache_ram_161__6 B1=nx37052 
Xcamera_module_cache_reg_ram_177__6 dffr $PINS Q=camera_module_cache_ram_177__6 
+ QB=#dummy[53] D=nx18963 CLK=clk R=rst 
Xix18964 mux21_ni $PINS Y=nx18963 A0=camera_module_cache_ram_177__6 A1=nx35526 
+ S0=nx35020 
Xcamera_module_cache_reg_ram_161__6 dffr $PINS Q=camera_module_cache_ram_161__6 
+ QB=#dummy[54] D=nx18973 CLK=clk R=rst 
Xix18974 mux21_ni $PINS Y=nx18973 A0=camera_module_cache_ram_161__6 A1=nx35526 
+ S0=nx35024 
Xix23386 aoi22 $PINS Y=nx23385 A0=camera_module_cache_ram_193__6 A1=nx36288 
+ B0=camera_module_cache_ram_209__6 B1=nx36328 
Xcamera_module_cache_reg_ram_193__6 dffr $PINS Q=camera_module_cache_ram_193__6 
+ QB=#dummy[55] D=nx18953 CLK=clk R=rst 
Xix18954 mux21_ni $PINS Y=nx18953 A0=camera_module_cache_ram_193__6 A1=nx35528 
+ S0=nx35016 
Xcamera_module_cache_reg_ram_209__6 dffr $PINS Q=camera_module_cache_ram_209__6 
+ QB=#dummy[56] D=nx18943 CLK=clk R=rst 
Xix18944 mux21_ni $PINS Y=nx18943 A0=camera_module_cache_ram_209__6 A1=nx35528 
+ S0=nx35012 
Xix23401 aoi22 $PINS Y=nx23400 A0=camera_module_cache_ram_225__6 A1=nx36368 
+ B0=camera_module_cache_ram_241__6 B1=nx36408 
Xcamera_module_cache_reg_ram_225__6 dffr $PINS Q=camera_module_cache_ram_225__6 
+ QB=#dummy[57] D=nx18933 CLK=clk R=rst 
Xix18934 mux21_ni $PINS Y=nx18933 A0=camera_module_cache_ram_225__6 A1=nx35528 
+ S0=nx35008 
Xcamera_module_cache_reg_ram_241__6 dffr $PINS Q=camera_module_cache_ram_241__6 
+ QB=#dummy[58] D=nx18923 CLK=clk R=rst 
Xix18924 mux21_ni $PINS Y=nx18923 A0=camera_module_cache_ram_241__6 A1=nx35528 
+ S0=nx35004 
Xix23414 oai21 $PINS Y=nx23413 A0=nx22252 A1=nx22174 B0=nx36456 
Xix22253 nand04 $PINS Y=nx22252 A0=nx23417 A1=nx23433 A2=nx23446 A3=nx23458 
Xix23418 aoi22 $PINS Y=nx23417 A0=camera_module_cache_ram_2__6 A1=nx37030 
+ B0=camera_module_cache_ram_18__6 B1=nx37032 
Xcamera_module_cache_reg_ram_2__6 dffr $PINS Q=camera_module_cache_ram_2__6 
+ QB=#dummy[59] D=nx18913 CLK=clk R=rst 
Xix18914 mux21_ni $PINS Y=nx18913 A0=camera_module_cache_ram_2__6 A1=nx35528 
+ S0=nx34994 
Xix5065 nand02 $PINS Y=nx5064 A0=nx23423 A1=nx23091 
Xcamera_module_cache_reg_ram_18__6 dffr $PINS Q=camera_module_cache_ram_18__6 
+ QB=#dummy[60] D=nx18903 CLK=clk R=rst 
Xix18904 mux21_ni $PINS Y=nx18903 A0=camera_module_cache_ram_18__6 A1=nx35528 
+ S0=nx34990 
Xix23434 aoi22 $PINS Y=nx23433 A0=camera_module_cache_ram_34__6 A1=nx37034 
+ B0=camera_module_cache_ram_50__6 B1=nx37036 