* SPICE NETLIST
***************************************

.SUBCKT nwell_contact
** N=1 EP=0 IP=0 FDC=0
.ENDS
***************************************
.SUBCKT tri01 VDD GND
** N=8 EP=2 IP=2 FDC=6
M0 GND E 6 GND N L=4e-07 W=1e-06 AD=2.4e-12 AS=1.1e-12 $X=11500 $Y=31000 $D=1
M1 7 A GND GND N L=4e-07 W=2e-06 AD=1.2e-12 AS=2.4e-12 $X=20000 $Y=26000 $D=1
M2 Y E 7 GND N L=4e-07 W=2e-06 AD=2.2e-12 AS=1.2e-12 $X=25000 $Y=26000 $D=1
M3 VDD E 6 VDD P L=4e-07 W=1.8e-06 AD=4.32e-12 AS=1.58e-12 $X=11500 $Y=71000 $D=0
M4 8 A VDD VDD P L=4e-07 W=3.6e-06 AD=2.16e-12 AS=4.32e-12 $X=20000 $Y=71000 $D=0
M5 Y 6 8 VDD P L=4e-07 W=3.6e-06 AD=3.66e-12 AS=2.16e-12 $X=25000 $Y=71000 $D=0
.ENDS
***************************************
.SUBCKT nand02 GND
** N=6 EP=1 IP=2 FDC=4
M0 6 A1 GND GND N L=4e-07 W=2e-06 AD=1.2e-12 AS=2.2e-12 $X=11500 $Y=26000 $D=1
M1 Y A0 6 GND N L=4e-07 W=2e-06 AD=2.2e-12 AS=1.2e-12 $X=16500 $Y=26000 $D=1
M2 Y A1 VDD VDD P L=4e-07 W=2.4e-06 AD=2.88e-12 AS=2.44e-12 $X=11500 $Y=77000 $D=0
M3 VDD A0 Y VDD P L=4e-07 W=2.4e-06 AD=2.44e-12 AS=2.88e-12 $X=19500 $Y=77000 $D=0
.ENDS
***************************************
.SUBCKT oai22 GND VDD
** N=10 EP=2 IP=2 FDC=8
M0 Y A0 8 GND N L=4e-07 W=2e-06 AD=2.4e-12 AS=2.2e-12 $X=11500 $Y=21000 $D=1
M1 8 A1 Y GND N L=4e-07 W=2e-06 AD=2.4e-12 AS=2.4e-12 $X=19500 $Y=21000 $D=1
M2 GND B1 8 GND N L=4e-07 W=2e-06 AD=2.4e-12 AS=2.4e-12 $X=27500 $Y=21000 $D=1
M3 8 B0 GND GND N L=4e-07 W=2e-06 AD=2.2e-12 AS=2.4e-12 $X=35500 $Y=21000 $D=1
M4 9 A0 VDD VDD P L=4e-07 W=4.8e-06 AD=2.88e-12 AS=4.88e-12 $X=15000 $Y=65000 $D=0
M5 Y A1 9 VDD P L=4e-07 W=4.8e-06 AD=5.76e-12 AS=2.88e-12 $X=20000 $Y=65000 $D=0
M6 10 B1 Y VDD P L=4e-07 W=4.8e-06 AD=2.88e-12 AS=5.76e-12 $X=28000 $Y=65000 $D=0
M7 VDD B0 10 VDD P L=4e-07 W=4.8e-06 AD=4.88e-12 AS=2.88e-12 $X=33000 $Y=65000 $D=0
.ENDS
***************************************
.SUBCKT inv02 GND VDD
** N=4 EP=2 IP=1 FDC=2
M0 Y A GND GND N L=4e-07 W=2e-06 AD=2.2e-12 AS=2.2e-12 $X=11500 $Y=26000 $D=1
M1 Y A VDD VDD P L=4e-07 W=3.6e-06 AD=3.66e-12 AS=3.66e-12 $X=11500 $Y=71000 $D=0
.ENDS
***************************************
.SUBCKT mux21_ni GND VDD
** N=12 EP=2 IP=0 FDC=12
M0 GND S0 7 GND N L=4e-07 W=1e-06 AD=2.4e-12 AS=1.1e-12 $X=11500 $Y=31000 $D=1
M1 9 S0 GND GND N L=4e-07 W=2e-06 AD=1.2e-12 AS=2.4e-12 $X=20000 $Y=26000 $D=1
M2 8 A1 9 GND N L=4e-07 W=2e-06 AD=2.4e-12 AS=1.2e-12 $X=25000 $Y=26000 $D=1
M3 10 A0 8 GND N L=4e-07 W=2e-06 AD=1.2e-12 AS=2.4e-12 $X=33000 $Y=26000 $D=1
M4 GND 7 10 GND N L=4e-07 W=2e-06 AD=2.4e-12 AS=1.2e-12 $X=38000 $Y=26000 $D=1
M5 Y 8 GND GND N L=4e-07 W=1e-06 AD=1.1e-12 AS=2.4e-12 $X=46500 $Y=31000 $D=1
M6 VDD S0 7 VDD P L=4e-07 W=1.8e-06 AD=4.32e-12 AS=1.58e-12 $X=11500 $Y=71000 $D=0
M7 11 S0 VDD VDD P L=4e-07 W=3.6e-06 AD=2.16e-12 AS=4.32e-12 $X=20000 $Y=71000 $D=0
M8 8 A0 11 VDD P L=4e-07 W=3.6e-06 AD=4.32e-12 AS=2.16e-12 $X=25000 $Y=71000 $D=0
M9 12 A1 8 VDD P L=4e-07 W=3.6e-06 AD=2.16e-12 AS=4.32e-12 $X=33000 $Y=71000 $D=0
M10 VDD 7 12 VDD P L=4e-07 W=3.6e-06 AD=4.32e-12 AS=2.16e-12 $X=38000 $Y=71000 $D=0
M11 Y 8 VDD VDD P L=4e-07 W=1.8e-06 AD=1.58e-12 AS=4.32e-12 $X=46500 $Y=71000 $D=0
.ENDS
***************************************
.SUBCKT mux21 GND VDD
** N=11 EP=2 IP=3 FDC=10
M0 8 7 Y GND N L=4e-07 W=2e-06 AD=1.2e-12 AS=2.2e-12 $X=11500 $Y=25000 $D=1
M1 GND A0 8 GND N L=4e-07 W=2e-06 AD=2.4e-12 AS=1.2e-12 $X=16500 $Y=25000 $D=1
M2 9 A1 GND GND N L=4e-07 W=2e-06 AD=1.2e-12 AS=2.4e-12 $X=24500 $Y=25000 $D=1
M3 Y S0 9 GND N L=4e-07 W=2e-06 AD=2.2e-12 AS=1.2e-12 $X=29500 $Y=25000 $D=1
M4 GND S0 7 GND N L=4e-07 W=1e-06 AD=1.1e-12 AS=1.1e-12 $X=45500 $Y=30000 $D=1
M5 10 7 Y VDD P L=4e-07 W=3.6e-06 AD=2.16e-12 AS=3.66e-12 $X=13000 $Y=71000 $D=0
M6 VDD A1 10 VDD P L=4e-07 W=3.6e-06 AD=4.32e-12 AS=2.16e-12 $X=18000 $Y=71000 $D=0
M7 11 A0 VDD VDD P L=4e-07 W=3.6e-06 AD=2.16e-12 AS=4.32e-12 $X=26000 $Y=71000 $D=0
M8 Y S0 11 VDD P L=4e-07 W=3.6e-06 AD=3.66e-12 AS=2.16e-12 $X=31000 $Y=71000 $D=0
M9 VDD S0 7 VDD P L=4e-07 W=1.8e-06 AD=1.58e-12 AS=1.58e-12 $X=47000 $Y=71000 $D=0
.ENDS
***************************************
.SUBCKT dffr GND VDD
** N=23 EP=2 IP=9 FDC=34
M0 16 D GND GND N L=4e-07 W=3e-06 AD=1.8e-12 AS=3.3e-12 $X=11500 $Y=26000 $D=1
M1 8 12 16 GND N L=4e-07 W=3e-06 AD=3.5e-12 AS=1.8e-12 $X=16500 $Y=26000 $D=1
M2 17 11 8 GND N L=4e-07 W=1e-06 AD=6e-13 AS=3.5e-12 $X=25000 $Y=31000 $D=1
M3 GND 9 17 GND N L=4e-07 W=1e-06 AD=2.4e-12 AS=6e-13 $X=30000 $Y=31000 $D=1
M4 9 8 GND GND N L=4e-07 W=2e-06 AD=2.4e-12 AS=2.4e-12 $X=38500 $Y=26000 $D=1
M5 GND R 9 GND N L=4e-07 W=2e-06 AD=2.4e-12 AS=2.4e-12 $X=46500 $Y=26000 $D=1
M6 10 9 GND GND N L=4e-07 W=1e-06 AD=1.1e-12 AS=2.4e-12 $X=55000 $Y=31000 $D=1
M7 GND 12 11 GND N L=4e-07 W=2e-06 AD=2.4e-12 AS=2.2e-12 $X=76000 $Y=31000 $D=1
M8 12 CLK GND GND N L=4e-07 W=2e-06 AD=2.2e-12 AS=2.4e-12 $X=84000 $Y=31000 $D=1
M9 18 10 GND GND N L=4e-07 W=3e-06 AD=1.8e-12 AS=3.3e-12 $X=100000 $Y=26000 $D=1
M10 13 11 18 GND N L=4e-07 W=3e-06 AD=3.5e-12 AS=1.8e-12 $X=105000 $Y=26000 $D=1
M11 14 12 13 GND N L=4e-07 W=1e-06 AD=1.1e-12 AS=3.5e-12 $X=113500 $Y=26000 $D=1
M12 14 R GND GND N L=4e-07 W=1e-06 AD=1.2e-12 AS=1.1e-12 $X=130500 $Y=26000 $D=1
M13 GND 15 14 GND N L=4e-07 W=1e-06 AD=1.2e-12 AS=1.2e-12 $X=138500 $Y=26000 $D=1
M14 15 13 GND GND N L=4e-07 W=1e-06 AD=1.1e-12 AS=1.2e-12 $X=146500 $Y=26000 $D=1
M15 GND 13 QB GND N L=4e-07 W=2e-06 AD=2.4e-12 AS=2.2e-12 $X=162500 $Y=31000 $D=1
M16 Q QB GND GND N L=4e-07 W=2e-06 AD=2.2e-12 AS=2.4e-12 $X=170500 $Y=31000 $D=1
M17 19 11 VDD VDD P L=4e-07 W=5.4e-06 AD=3.24e-12 AS=5.74e-12 $X=11500 $Y=62000 $D=0
M18 8 D 19 VDD P L=4e-07 W=5.4e-06 AD=6.14e-12 AS=3.24e-12 $X=16500 $Y=62000 $D=0
M19 20 12 8 VDD P L=4e-07 W=1e-06 AD=6e-13 AS=6.14e-12 $X=25000 $Y=62000 $D=0
M20 VDD 9 20 VDD P L=4e-07 W=1e-06 AD=1.1e-12 AS=6e-13 $X=30000 $Y=62000 $D=0
M21 21 8 9 VDD P L=4e-07 W=2.4e-06 AD=1.44e-12 AS=2.44e-12 $X=46000 $Y=62000 $D=0
M22 VDD R 21 VDD P L=4e-07 W=2.4e-06 AD=3e-12 AS=1.44e-12 $X=51000 $Y=62000 $D=0
M23 10 9 VDD VDD P L=4e-07 W=1.8e-06 AD=1.58e-12 AS=3e-12 $X=59500 $Y=62000 $D=0
M24 VDD 12 11 VDD P L=4e-07 W=3.6e-06 AD=4.32e-12 AS=3.66e-12 $X=76000 $Y=62000 $D=0
M25 12 CLK VDD VDD P L=4e-07 W=3.6e-06 AD=3.66e-12 AS=4.32e-12 $X=84000 $Y=62000 $D=0
M26 22 10 VDD VDD P L=4e-07 W=5.4e-06 AD=3.24e-12 AS=5.74e-12 $X=100000 $Y=53000 $D=0
M27 13 12 22 VDD P L=4e-07 W=5.4e-06 AD=6.14e-12 AS=3.24e-12 $X=105000 $Y=53000 $D=0
M28 14 11 13 VDD P L=4e-07 W=1e-06 AD=1.2e-12 AS=6.14e-12 $X=113500 $Y=68000 $D=0
M29 23 R 14 VDD P L=4e-07 W=1e-06 AD=6e-13 AS=1.2e-12 $X=121500 $Y=68000 $D=0
M30 VDD 15 23 VDD P L=4e-07 W=1e-06 AD=1.2e-12 AS=6e-13 $X=126500 $Y=68000 $D=0
M31 15 13 VDD VDD P L=4e-07 W=1e-06 AD=1.1e-12 AS=1.2e-12 $X=134500 $Y=68000 $D=0
M32 VDD 13 QB VDD P L=4e-07 W=3.6e-06 AD=4.32e-12 AS=3.66e-12 $X=162500 $Y=62000 $D=0
M33 Q QB VDD VDD P L=4e-07 W=3.6e-06 AD=3.66e-12 AS=4.32e-12 $X=170500 $Y=62000 $D=0
.ENDS
***************************************
.SUBCKT inv01 GND VDD
** N=4 EP=2 IP=1 FDC=2
M0 Y A GND GND N L=4e-07 W=1e-06 AD=1.1e-12 AS=1.1e-12 $X=11500 $Y=26000 $D=1
M1 Y A VDD VDD P L=4e-07 W=1.8e-06 AD=1.58e-12 AS=1.58e-12 $X=11500 $Y=80000 $D=0
.ENDS
***************************************
.SUBCKT buf02 GND VDD
** N=5 EP=2 IP=1 FDC=4
M0 GND 5 Y GND N L=4e-07 W=2e-06 AD=2.4e-12 AS=2.2e-12 $X=11500 $Y=26000 $D=1
M1 5 A GND GND N L=4e-07 W=1e-06 AD=1.1e-12 AS=2.4e-12 $X=20000 $Y=31000 $D=1
M2 VDD 5 Y VDD P L=4e-07 W=3.6e-06 AD=4.32e-12 AS=3.66e-12 $X=11500 $Y=71000 $D=0
M3 5 A VDD VDD P L=4e-07 W=1.8e-06 AD=1.58e-12 AS=4.32e-12 $X=20000 $Y=71000 $D=0
.ENDS
***************************************
.SUBCKT aoi22 VDD GND
** N=10 EP=2 IP=2 FDC=8
M0 9 B1 GND GND N L=4e-07 W=2e-06 AD=1.2e-12 AS=2.2e-12 $X=14500 $Y=26000 $D=1
M1 Y B0 9 GND N L=4e-07 W=2e-06 AD=2.4e-12 AS=1.2e-12 $X=19500 $Y=26000 $D=1
M2 10 A0 Y GND N L=4e-07 W=2e-06 AD=1.2e-12 AS=2.4e-12 $X=27500 $Y=26000 $D=1
M3 GND A1 10 GND N L=4e-07 W=2e-06 AD=2.2e-12 AS=1.2e-12 $X=32500 $Y=26000 $D=1
M4 Y B1 8 VDD P L=4e-07 W=2.6e-06 AD=3.12e-12 AS=2.56e-12 $X=11500 $Y=76000 $D=0
M5 8 B0 Y VDD P L=4e-07 W=2.6e-06 AD=3.12e-12 AS=3.12e-12 $X=19500 $Y=76000 $D=0
M6 VDD A0 8 VDD P L=4e-07 W=2.6e-06 AD=3.12e-12 AS=3.12e-12 $X=27500 $Y=76000 $D=0
M7 8 A1 VDD VDD P L=4e-07 W=2.6e-06 AD=2.56e-12 AS=3.12e-12 $X=35500 $Y=76000 $D=0
.ENDS
***************************************
.SUBCKT ICV_1 1 2
** N=2 EP=2 IP=4 FDC=46
X0 1 2 mux21_ni $T=-60000 0 0 0 $X=-60000 $Y=0
X1 1 2 dffr $T=0 0 0 0 $X=0 $Y=0
.ENDS
***************************************
.SUBCKT ICV_2 1 2
** N=2 EP=2 IP=4 FDC=68
X0 1 2 dffr $T=-184000 0 0 0 $X=-184000 $Y=0
X1 1 2 dffr $T=0 0 0 0 $X=0 $Y=0
.ENDS
***************************************
.SUBCKT ICV_3 1
** N=2 EP=1 IP=4 FDC=40
X0 2 1 tri01 $T=184000 0 0 0 $X=184000 $Y=0
X1 1 2 dffr $T=0 0 0 0 $X=0 $Y=0
.ENDS
***************************************
.SUBCKT ICV_4 1 2
** N=2 EP=2 IP=4 FDC=68
X0 1 2 dffr $T=0 0 0 0 $X=0 $Y=0
X1 1 2 dffr $T=184000 0 0 0 $X=184000 $Y=0
.ENDS
***************************************
.SUBCKT nand04 GND VDD
** N=10 EP=2 IP=2 FDC=8
M0 8 A0 Y GND N L=4e-07 W=4e-06 AD=2.4e-12 AS=4.4e-12 $X=11500 $Y=28000 $D=1
M1 9 A1 8 GND N L=4e-07 W=4e-06 AD=2.4e-12 AS=2.4e-12 $X=16500 $Y=28000 $D=1
M2 10 A2 9 GND N L=4e-07 W=4e-06 AD=2.4e-12 AS=2.4e-12 $X=21500 $Y=28000 $D=1
M3 GND A3 10 GND N L=4e-07 W=4e-06 AD=4.4e-12 AS=2.4e-12 $X=26500 $Y=28000 $D=1
M4 Y A0 VDD VDD P L=4e-07 W=4e-06 AD=4.8e-12 AS=4.4e-12 $X=11500 $Y=79500 $D=0
M5 VDD A1 Y VDD P L=4e-07 W=4e-06 AD=4.8e-12 AS=4.8e-12 $X=19500 $Y=79500 $D=0
M6 Y A2 VDD VDD P L=4e-07 W=4e-06 AD=4.8e-12 AS=4.8e-12 $X=27500 $Y=79500 $D=0
M7 VDD A3 Y VDD P L=4e-07 W=4e-06 AD=4.4e-12 AS=4.8e-12 $X=35500 $Y=79500 $D=0
.ENDS
***************************************
.SUBCKT oai221 GND
** N=12 EP=1 IP=3 FDC=10
M0 8 C0 GND GND N L=4e-07 W=3e-06 AD=3.3e-12 AS=3.3e-12 $X=11500 $Y=25000 $D=1
M1 Y A0 10 GND N L=4e-07 W=3e-06 AD=3.6e-12 AS=3.3e-12 $X=28000 $Y=25000 $D=1
M2 10 A1 Y GND N L=4e-07 W=3e-06 AD=3.6e-12 AS=3.6e-12 $X=36000 $Y=25000 $D=1
M3 8 B1 10 GND N L=4e-07 W=3e-06 AD=3.6e-12 AS=3.6e-12 $X=44000 $Y=25000 $D=1
M4 10 B0 8 GND N L=4e-07 W=3e-06 AD=3.3e-12 AS=3.6e-12 $X=52000 $Y=25000 $D=1
M5 VDD C0 Y VDD P L=4e-07 W=3e-06 AD=7.2e-12 AS=3.3e-12 $X=19500 $Y=74000 $D=0
M6 11 A0 VDD VDD P L=4e-07 W=6e-06 AD=3.6e-12 AS=7.2e-12 $X=28000 $Y=74000 $D=0
M7 Y A1 11 VDD P L=4e-07 W=6e-06 AD=7.2e-12 AS=3.6e-12 $X=33000 $Y=74000 $D=0
M8 12 B1 Y VDD P L=4e-07 W=6e-06 AD=3.6e-12 AS=7.2e-12 $X=41000 $Y=74000 $D=0
M9 VDD B0 12 VDD P L=4e-07 W=6e-06 AD=6.6e-12 AS=3.6e-12 $X=46000 $Y=74000 $D=0
.ENDS
***************************************
.SUBCKT ICV_5 1
** N=2 EP=1 IP=4 FDC=46
X0 1 2 mux21_ni $T=0 0 1 180 $X=-60000 $Y=0
X1 1 2 dffr $T=0 0 0 0 $X=0 $Y=0
.ENDS
***************************************
.SUBCKT ICV_6 1 2
** N=2 EP=2 IP=4 FDC=46
X0 1 2 mux21_ni $T=184000 0 0 0 $X=184000 $Y=0
X1 1 2 dffr $T=0 0 0 0 $X=0 $Y=0
.ENDS
***************************************
.SUBCKT ICV_7 1 2
** N=2 EP=2 IP=4 FDC=68
X0 1 2 dffr $T=0 0 1 180 $X=-184000 $Y=0
X1 1 2 dffr $T=0 0 0 0 $X=0 $Y=0
.ENDS
***************************************
.SUBCKT ICV_8 1
** N=2 EP=1 IP=4 FDC=38
X0 1 2 dffr $T=0 0 0 0 $X=0 $Y=0
X1 1 2 buf02 $T=217500 0 1 180 $X=184000 $Y=0
.ENDS
***************************************
.SUBCKT ICV_9 1 2
** N=2 EP=2 IP=4 FDC=42
X0 1 2 dffr $T=0 0 0 0 $X=0 $Y=0
X1 2 1 aoi22 $T=184000 0 0 0 $X=184000 $Y=0
.ENDS
***************************************
.SUBCKT dff GND VDD
** N=20 EP=2 IP=5 FDC=28
M0 13 9 7 GND N L=4e-07 W=3e-06 AD=1.8e-12 AS=3.3e-12 $X=11500 $Y=26000 $D=1
M1 GND D 13 GND N L=4e-07 W=3e-06 AD=3.3e-12 AS=1.8e-12 $X=16500 $Y=26000 $D=1
M2 14 10 7 GND N L=4e-07 W=1e-06 AD=6e-13 AS=1.1e-12 $X=32500 $Y=36000 $D=1
M3 GND 8 14 GND N L=4e-07 W=1e-06 AD=1.2e-12 AS=6e-13 $X=37500 $Y=36000 $D=1
M4 8 7 GND GND N L=4e-07 W=1e-06 AD=1.1e-12 AS=1.2e-12 $X=45500 $Y=36000 $D=1
M5 GND CLK 9 GND N L=4e-07 W=2e-06 AD=2.4e-12 AS=2.2e-12 $X=61500 $Y=28500 $D=1
M6 10 9 GND GND N L=4e-07 W=2e-06 AD=2.2e-12 AS=2.4e-12 $X=69500 $Y=28500 $D=1
M7 GND 12 11 GND N L=4e-07 W=1e-06 AD=1.2e-12 AS=1.1e-12 $X=85500 $Y=37500 $D=1
M8 15 11 GND GND N L=4e-07 W=1e-06 AD=6e-13 AS=1.2e-12 $X=93500 $Y=37500 $D=1
M9 12 9 15 GND N L=4e-07 W=1e-06 AD=1.1e-12 AS=6e-13 $X=98500 $Y=37500 $D=1
M10 16 7 GND GND N L=4e-07 W=3e-06 AD=1.8e-12 AS=3.3e-12 $X=115500 $Y=27500 $D=1
M11 12 10 16 GND N L=4e-07 W=3e-06 AD=3.3e-12 AS=1.8e-12 $X=120500 $Y=27500 $D=1
M12 GND 12 QB GND N L=4e-07 W=2e-06 AD=2.4e-12 AS=2.2e-12 $X=136500 $Y=32500 $D=1
M13 Q QB GND GND N L=4e-07 W=2e-06 AD=2.2e-12 AS=2.4e-12 $X=144500 $Y=32500 $D=1
M14 17 D VDD VDD P L=4e-07 W=5.4e-06 AD=3.24e-12 AS=5.74e-12 $X=11500 $Y=62000 $D=0
M15 7 10 17 VDD P L=4e-07 W=5.4e-06 AD=6.14e-12 AS=3.24e-12 $X=16500 $Y=62000 $D=0
M16 18 9 7 VDD P L=4e-07 W=1e-06 AD=3.1e-12 AS=6.14e-12 $X=25000 $Y=84000 $D=0
M17 VDD 8 18 VDD P L=4e-07 W=1e-06 AD=1.2e-12 AS=3.1e-12 $X=32000 $Y=66500 $D=0
M18 8 7 VDD VDD P L=4e-07 W=1e-06 AD=1.1e-12 AS=1.2e-12 $X=40000 $Y=66500 $D=0
M19 VDD CLK 9 VDD P L=4e-07 W=3.6e-06 AD=4.32e-12 AS=3.66e-12 $X=61500 $Y=71000 $D=0
M20 10 9 VDD VDD P L=4e-07 W=3.6e-06 AD=3.66e-12 AS=4.32e-12 $X=69500 $Y=71000 $D=0
M21 VDD 12 11 VDD P L=4e-07 W=1e-06 AD=1.2e-12 AS=1.1e-12 $X=85500 $Y=84000 $D=0
M22 19 11 VDD VDD P L=4e-07 W=1e-06 AD=6e-13 AS=1.2e-12 $X=93500 $Y=84000 $D=0
M23 12 10 19 VDD P L=4e-07 W=1e-06 AD=6.14e-12 AS=6e-13 $X=98500 $Y=84000 $D=0
M24 20 9 12 VDD P L=4e-07 W=5.4e-06 AD=3.24e-12 AS=6.14e-12 $X=107000 $Y=62000 $D=0
M25 VDD 7 20 VDD P L=4e-07 W=5.4e-06 AD=5.74e-12 AS=3.24e-12 $X=112000 $Y=62000 $D=0
M26 VDD 12 QB VDD P L=4e-07 W=3.6e-06 AD=4.32e-12 AS=3.66e-12 $X=136500 $Y=71000 $D=0
M27 Q QB VDD VDD P L=4e-07 W=3.6e-06 AD=3.66e-12 AS=4.32e-12 $X=144500 $Y=71000 $D=0
.ENDS
***************************************
.SUBCKT ICV_10 1
** N=2 EP=1 IP=4 FDC=42
X0 1 2 dffr $T=0 0 0 0 $X=0 $Y=0
X1 1 2 nand04 $T=184000 0 0 0 $X=184000 $Y=0
.ENDS
***************************************
.SUBCKT and03 GND VDD
** N=9 EP=2 IP=2 FDC=8
M0 8 A0 7 GND N L=4e-07 W=3e-06 AD=1.8e-12 AS=3.3e-12 $X=15500 $Y=18500 $D=1
M1 9 A1 8 GND N L=4e-07 W=3e-06 AD=1.8e-12 AS=1.8e-12 $X=20500 $Y=18500 $D=1
M2 GND A2 9 GND N L=4e-07 W=3e-06 AD=3.5e-12 AS=1.8e-12 $X=25500 $Y=18500 $D=1
M3 Y 7 GND GND N L=4e-07 W=1e-06 AD=1.1e-12 AS=3.5e-12 $X=34000 $Y=18500 $D=1
M4 VDD 7 Y VDD P L=4e-07 W=1.8e-06 AD=3.66e-12 AS=1.58e-12 $X=11500 $Y=86000 $D=0
M5 7 A0 VDD VDD P L=4e-07 W=3e-06 AD=3.6e-12 AS=3.66e-12 $X=20000 $Y=86000 $D=0
M6 VDD A1 7 VDD P L=4e-07 W=3e-06 AD=3.6e-12 AS=3.6e-12 $X=28000 $Y=86000 $D=0
M7 7 A2 VDD VDD P L=4e-07 W=3e-06 AD=3.3e-12 AS=3.6e-12 $X=36000 $Y=86000 $D=0
.ENDS
***************************************
.SUBCKT ICV_11 1 2
** N=2 EP=2 IP=4 FDC=80
X0 1 2 dffr $T=0 0 0 0 $X=0 $Y=0
X1 1 2 ICV_1 $T=368000 0 1 180 $X=184000 $Y=0
.ENDS
***************************************
.SUBCKT ICV_12 1
** N=2 EP=1 IP=4 FDC=38
X0 1 2 dffr $T=0 0 0 0 $X=0 $Y=0
X1 1 2 buf02 $T=184000 0 0 0 $X=184000 $Y=0
.ENDS
***************************************
.SUBCKT ICV_13 1 2
** N=2 EP=2 IP=4 FDC=36
X0 1 2 inv02 $T=184000 0 0 0 $X=184000 $Y=0
X1 1 2 dffr $T=0 0 0 0 $X=0 $Y=0
.ENDS
***************************************
.SUBCKT ICV_14 1
** N=2 EP=1 IP=4 FDC=42
X0 1 2 dffr $T=0 0 0 0 $X=0 $Y=0
X1 2 1 aoi22 $T=0 0 1 180 $X=-49000 $Y=0
.ENDS
***************************************
.SUBCKT ICV_15 1
** N=2 EP=1 IP=4 FDC=80
X0 1 2 dffr $T=0 0 0 0 $X=0 $Y=0
X1 1 2 ICV_1 $T=-184000 0 0 0 $X=-244000 $Y=0
.ENDS
***************************************
.SUBCKT ICV_16 1 2
** N=2 EP=2 IP=4 FDC=42
X0 1 2 dffr $T=0 0 0 0 $X=0 $Y=0
X1 2 1 aoi22 $T=233000 0 1 180 $X=184000 $Y=0
.ENDS
***************************************
.SUBCKT ICV_17 1 2
** N=2 EP=2 IP=4 FDC=68
X0 1 2 dffr $T=0 0 0 0 $X=0 $Y=0
X1 1 2 dffr $T=368000 0 1 180 $X=184000 $Y=0
.ENDS
***************************************
.SUBCKT xnor2 GND VDD
** N=9 EP=2 IP=3 FDC=10
M0 7 6 GND GND N L=4e-07 W=2e-06 AD=2.4e-12 AS=2.2e-12 $X=11500 $Y=26000 $D=1
M1 Y A0 7 GND N L=4e-07 W=2e-06 AD=2.4e-12 AS=2.4e-12 $X=19500 $Y=26000 $D=1
M2 7 A1 Y GND N L=4e-07 W=2e-06 AD=2.2e-12 AS=2.4e-12 $X=27500 $Y=26000 $D=1
M3 8 A1 GND GND N L=4e-07 W=2e-06 AD=1.2e-12 AS=2.2e-12 $X=44500 $Y=26000 $D=1
M4 6 A0 8 GND N L=4e-07 W=2e-06 AD=2.2e-12 AS=1.2e-12 $X=49500 $Y=26000 $D=1
M5 VDD 6 Y VDD P L=4e-07 W=2.6e-06 AD=3.12e-12 AS=2.56e-12 $X=11500 $Y=76000 $D=0
M6 6 A0 VDD VDD P L=4e-07 W=2.6e-06 AD=3.12e-12 AS=3.12e-12 $X=19500 $Y=76000 $D=0
M7 VDD A1 6 VDD P L=4e-07 W=2.6e-06 AD=2.56e-12 AS=3.12e-12 $X=27500 $Y=76000 $D=0
M8 9 A1 Y VDD P L=4e-07 W=5.2e-06 AD=3.12e-12 AS=5.62e-12 $X=44500 $Y=63000 $D=0
M9 VDD A0 9 VDD P L=4e-07 W=5.2e-06 AD=5.62e-12 AS=3.12e-12 $X=49500 $Y=63000 $D=0
.ENDS
***************************************
.SUBCKT ICV_18 1 2
** N=3 EP=2 IP=4 FDC=22
X0 1 3 mux21_ni $T=64000 0 0 0 $X=64000 $Y=0
X1 1 2 xnor2 $T=0 0 0 0 $X=0 $Y=0
.ENDS
***************************************
.SUBCKT xor2 GND
** N=10 EP=1 IP=3 FDC=12
M0 9 A0 5 GND N L=4e-07 W=2e-06 AD=1.2e-12 AS=2.2e-12 $X=11500 $Y=26000 $D=1
M1 GND A1 9 GND N L=4e-07 W=2e-06 AD=2.4e-12 AS=1.2e-12 $X=16500 $Y=26000 $D=1
M2 6 5 GND GND N L=4e-07 W=2e-06 AD=2.4e-12 AS=2.4e-12 $X=24500 $Y=26000 $D=1
M3 8 A0 6 GND N L=4e-07 W=2e-06 AD=2.4e-12 AS=2.4e-12 $X=32500 $Y=26000 $D=1
M4 6 A1 8 GND N L=4e-07 W=2e-06 AD=2.2e-12 AS=2.4e-12 $X=40500 $Y=26000 $D=1
M5 Y 8 GND GND N L=4e-07 W=1e-06 AD=1.1e-12 AS=1.1e-12 $X=56500 $Y=31000 $D=1
M6 5 A0 VDD VDD P L=4e-07 W=2.6e-06 AD=6.12e-12 AS=2.56e-12 $X=14500 $Y=63000 $D=0
M7 VDD A1 5 VDD P L=4e-07 W=2.6e-06 AD=6.14e-12 AS=6.12e-12 $X=23500 $Y=76000 $D=0
M8 10 A0 VDD VDD P L=4e-07 W=5.2e-06 AD=3.12e-12 AS=6.14e-12 $X=32000 $Y=63000 $D=0
M9 8 A1 10 VDD P L=4e-07 W=5.2e-06 AD=6.14e-12 AS=3.12e-12 $X=37000 $Y=63000 $D=0
M10 VDD 5 8 VDD P L=4e-07 W=2.6e-06 AD=3.22e-12 AS=6.14e-12 $X=45500 $Y=63000 $D=0
M11 Y 8 VDD VDD P L=4e-07 W=1.8e-06 AD=1.58e-12 AS=3.22e-12 $X=54000 $Y=63000 $D=0
.ENDS
***************************************
.SUBCKT ICV_19 1 2
** N=2 EP=2 IP=4 FDC=46
X0 1 2 mux21_ni $T=244000 0 1 180 $X=184000 $Y=0
X1 1 2 dffr $T=0 0 0 0 $X=0 $Y=0
.ENDS
***************************************
.SUBCKT ICV_20 1
** N=3 EP=1 IP=4 FDC=20
X0 1 2 xnor2 $T=0 0 0 0 $X=0 $Y=0
X1 1 3 xnor2 $T=64000 0 0 0 $X=64000 $Y=0
.ENDS
***************************************
.SUBCKT ICV_21 1
** N=2 EP=1 IP=4 FDC=36
X0 1 2 inv02 $T=-25000 0 0 0 $X=-25000 $Y=0
X1 1 2 dffr $T=0 0 0 0 $X=0 $Y=0
.ENDS
***************************************
.SUBCKT ICV_22 1
** N=3 EP=1 IP=4 FDC=18
X0 1 2 oai22 $T=-50000 0 0 0 $X=-50000 $Y=0
X1 1 3 xnor2 $T=0 0 0 0 $X=0 $Y=0
.ENDS
***************************************
.SUBCKT ICV_23 1 2
** N=2 EP=2 IP=4 FDC=42
X0 1 2 dffr $T=0 0 0 0 $X=0 $Y=0
X1 1 2 and03 $T=184000 0 0 0 $X=184000 $Y=0
.ENDS
***************************************
.SUBCKT ICV_24 1
** N=2 EP=1 IP=4 FDC=80
X0 1 2 dffr $T=0 0 0 0 $X=0 $Y=0
X1 1 2 ICV_6 $T=184000 0 0 0 $X=184000 $Y=0
.ENDS
***************************************
.SUBCKT ICV_25 1
** N=3 EP=1 IP=4 FDC=18
X0 2 1 aoi22 $T=113000 0 1 180 $X=64000 $Y=0
X1 1 3 xnor2 $T=0 0 0 0 $X=0 $Y=0
.ENDS
***************************************
.SUBCKT oai32 GND
** N=12 EP=1 IP=3 FDC=10
M0 9 A0 Y GND N L=4e-07 W=3e-06 AD=3.6e-12 AS=3.3e-12 $X=11500 $Y=18500 $D=1
M1 Y A1 9 GND N L=4e-07 W=3e-06 AD=3.6e-12 AS=3.6e-12 $X=19500 $Y=18500 $D=1
M2 9 A2 Y GND N L=4e-07 W=3e-06 AD=3.6e-12 AS=3.6e-12 $X=27500 $Y=18500 $D=1
M3 GND B1 9 GND N L=4e-07 W=3e-06 AD=3.6e-12 AS=3.6e-12 $X=35500 $Y=18500 $D=1
M4 9 B0 GND GND N L=4e-07 W=3e-06 AD=3.3e-12 AS=3.6e-12 $X=43500 $Y=18500 $D=1
M5 10 A0 VDD VDD P L=4e-07 W=7.2e-06 AD=4.32e-12 AS=7.82e-12 $X=16000 $Y=68000 $D=0
M6 11 A1 10 VDD P L=4e-07 W=7.2e-06 AD=4.32e-12 AS=4.32e-12 $X=21000 $Y=68000 $D=0
M7 Y A2 11 VDD P L=4e-07 W=7.2e-06 AD=8.88e-12 AS=4.32e-12 $X=26000 $Y=68000 $D=0
M8 12 B1 Y VDD P L=4e-07 W=4.8e-06 AD=2.88e-12 AS=8.88e-12 $X=34500 $Y=68000 $D=0
M9 VDD B0 12 VDD P L=4e-07 W=4.8e-06 AD=4.88e-12 AS=2.88e-12 $X=39500 $Y=68000 $D=0
.ENDS
***************************************
.SUBCKT or04 GND
** N=11 EP=1 IP=3 FDC=10
M0 GND 8 Y GND N L=4e-07 W=1e-06 AD=1.1e-12 AS=1.1e-12 $X=11500 $Y=26000 $D=1
M1 GND A0 8 GND N L=4e-07 W=1e-06 AD=1.2e-12 AS=1.1e-12 $X=27500 $Y=26000 $D=1
M2 8 A1 GND GND N L=4e-07 W=1e-06 AD=1.2e-12 AS=1.2e-12 $X=35500 $Y=26000 $D=1
M3 GND A2 8 GND N L=4e-07 W=1e-06 AD=1.2e-12 AS=1.2e-12 $X=43500 $Y=26000 $D=1
M4 8 A3 GND GND N L=4e-07 W=1e-06 AD=1.1e-12 AS=1.2e-12 $X=51500 $Y=26000 $D=1
M5 VDD 8 Y VDD P L=4e-07 W=1.8e-06 AD=4.32e-12 AS=1.58e-12 $X=23500 $Y=71000 $D=0
M6 9 A0 VDD VDD P L=4e-07 W=3.6e-06 AD=2.16e-12 AS=4.32e-12 $X=32000 $Y=71000 $D=0
M7 10 A1 9 VDD P L=4e-07 W=3.6e-06 AD=2.16e-12 AS=2.16e-12 $X=37000 $Y=71000 $D=0
M8 11 A2 10 VDD P L=4e-07 W=3.6e-06 AD=2.16e-12 AS=2.16e-12 $X=42000 $Y=71000 $D=0
M9 8 A3 11 VDD P L=4e-07 W=3.6e-06 AD=3.66e-12 AS=2.16e-12 $X=47000 $Y=71000 $D=0
.ENDS
***************************************
.SUBCKT and02 GND VDD
** N=7 EP=2 IP=2 FDC=6
M0 7 A0 6 GND N L=4e-07 W=2e-06 AD=1.2e-12 AS=2.2e-12 $X=14500 $Y=26000 $D=1
M1 GND A1 7 GND N L=4e-07 W=2e-06 AD=2.4e-12 AS=1.2e-12 $X=19500 $Y=26000 $D=1
M2 Y 6 GND GND N L=4e-07 W=1e-06 AD=1.1e-12 AS=2.4e-12 $X=28000 $Y=31000 $D=1
M3 6 A0 VDD VDD P L=4e-07 W=2.4e-06 AD=2.88e-12 AS=2.44e-12 $X=11500 $Y=77000 $D=0
M4 VDD A1 6 VDD P L=4e-07 W=2.4e-06 AD=3e-12 AS=2.88e-12 $X=19500 $Y=77000 $D=0
M5 Y 6 VDD VDD P L=4e-07 W=1.8e-06 AD=1.58e-12 AS=3e-12 $X=28000 $Y=77000 $D=0
.ENDS
***************************************
.SUBCKT ICV_26 1
** N=2 EP=1 IP=4 FDC=36
X0 1 2 inv02 $T=209000 0 1 180 $X=184000 $Y=0
X1 1 2 dffr $T=0 0 0 0 $X=0 $Y=0
.ENDS
***************************************
.SUBCKT nor02_2x GND
** N=6 EP=1 IP=0 FDC=4
M0 Y A0 GND GND N L=4e-07 W=2e-06 AD=2.4e-12 AS=2.56e-12 $X=11500 $Y=18000 $D=1
M1 GND A1 Y GND N L=4e-07 W=2e-06 AD=2.56e-12 AS=2.4e-12 $X=19500 $Y=18000 $D=1
M2 6 A0 VDD VDD P L=4e-07 W=5.2e-06 AD=3.12e-12 AS=5.98e-12 $X=11500 $Y=76000 $D=0
M3 Y A1 6 VDD P L=4e-07 W=5.2e-06 AD=5.62e-12 AS=3.12e-12 $X=16500 $Y=76000 $D=0
.ENDS
***************************************
.SUBCKT ICV_27 1
** N=2 EP=1 IP=4 FDC=80
X0 1 2 dffr $T=0 0 0 0 $X=0 $Y=0
X1 1 2 ICV_19 $T=184000 0 0 0 $X=184000 $Y=0
.ENDS
***************************************
.SUBCKT ICV_28 1
** N=2 EP=1 IP=4 FDC=80
X0 1 2 dffr $T=0 0 0 0 $X=0 $Y=0
X1 1 2 ICV_19 $T=0 0 1 180 $X=-244000 $Y=0
.ENDS
***************************************
.SUBCKT ao22 GND
** N=11 EP=1 IP=3 FDC=10
M0 10 B1 GND GND N L=4e-07 W=2e-06 AD=1.2e-12 AS=2.2e-12 $X=11500 $Y=26000 $D=1
M1 7 B0 10 GND N L=4e-07 W=2e-06 AD=2.4e-12 AS=1.2e-12 $X=16500 $Y=26000 $D=1
M2 11 A0 7 GND N L=4e-07 W=2e-06 AD=1.2e-12 AS=2.4e-12 $X=24500 $Y=26000 $D=1
M3 GND A1 11 GND N L=4e-07 W=2e-06 AD=2.4e-12 AS=1.2e-12 $X=29500 $Y=26000 $D=1
M4 Y 7 GND GND N L=4e-07 W=1e-06 AD=1.1e-12 AS=2.4e-12 $X=38000 $Y=31000 $D=1
M5 7 B1 8 VDD P L=4e-07 W=2.6e-06 AD=3.12e-12 AS=2.56e-12 $X=11500 $Y=76000 $D=0
M6 8 B0 7 VDD P L=4e-07 W=2.6e-06 AD=3.12e-12 AS=3.12e-12 $X=19500 $Y=76000 $D=0
M7 VDD A0 8 VDD P L=4e-07 W=2.6e-06 AD=3.12e-12 AS=3.12e-12 $X=27500 $Y=76000 $D=0
M8 8 A1 VDD VDD P L=4e-07 W=2.6e-06 AD=2.56e-12 AS=3.12e-12 $X=35500 $Y=76000 $D=0
M9 Y 7 VDD VDD P L=4e-07 W=1.8e-06 AD=1.58e-12 AS=1.58e-12 $X=51500 $Y=80000 $D=0
.ENDS
***************************************
.SUBCKT ICV_29 1
** N=2 EP=1 IP=4 FDC=76
X0 1 2 dffr $T=0 0 0 0 $X=0 $Y=0
X1 1 2 ICV_16 $T=184000 0 0 0 $X=184000 $Y=0
.ENDS
***************************************
.SUBCKT aoi221 GND
** N=12 EP=1 IP=3 FDC=10
M0 Y C0 GND GND N L=4e-07 W=2e-06 AD=3.7e-12 AS=2.2e-12 $X=11500 $Y=26000 $D=1
M1 11 B0 Y GND N L=4e-07 W=3e-06 AD=1.8e-12 AS=3.7e-12 $X=20000 $Y=21000 $D=1
M2 GND B1 11 GND N L=4e-07 W=3e-06 AD=3.6e-12 AS=1.8e-12 $X=25000 $Y=21000 $D=1
M3 12 A1 GND GND N L=4e-07 W=3e-06 AD=1.8e-12 AS=3.6e-12 $X=33000 $Y=21000 $D=1
M4 Y A0 12 GND N L=4e-07 W=3e-06 AD=3.3e-12 AS=1.8e-12 $X=38000 $Y=21000 $D=1
M5 8 C0 Y VDD P L=4e-07 W=4.8e-06 AD=5.76e-12 AS=4.88e-12 $X=11500 $Y=73000 $D=0
M6 10 B0 8 VDD P L=4e-07 W=4.8e-06 AD=5.76e-12 AS=5.76e-12 $X=19500 $Y=73000 $D=0
M7 8 B1 10 VDD P L=4e-07 W=4.8e-06 AD=4.88e-12 AS=5.76e-12 $X=27500 $Y=73000 $D=0
M8 VDD A1 10 VDD P L=4e-07 W=4.8e-06 AD=5.76e-12 AS=4.88e-12 $X=44000 $Y=73000 $D=0
M9 10 A0 VDD VDD P L=4e-07 W=4.8e-06 AD=4.88e-12 AS=5.76e-12 $X=52000 $Y=73000 $D=0
.ENDS
***************************************
.SUBCKT oai21 GND VDD
** N=8 EP=2 IP=2 FDC=6
M0 7 B0 GND GND N L=4e-07 W=2e-06 AD=2.4e-12 AS=2.2e-12 $X=11500 $Y=26000 $D=1
M1 Y A0 7 GND N L=4e-07 W=2e-06 AD=2.4e-12 AS=2.4e-12 $X=19500 $Y=26000 $D=1
M2 7 A1 Y GND N L=4e-07 W=2e-06 AD=2.2e-12 AS=2.4e-12 $X=27500 $Y=26000 $D=1
M3 VDD B0 Y VDD P L=4e-07 W=2.4e-06 AD=5.76e-12 AS=2.44e-12 $X=11500 $Y=65000 $D=0
M4 8 A0 VDD VDD P L=4e-07 W=4.8e-06 AD=2.88e-12 AS=5.76e-12 $X=20000 $Y=65000 $D=0
M5 Y A1 8 VDD P L=4e-07 W=4.8e-06 AD=4.88e-12 AS=2.88e-12 $X=25000 $Y=65000 $D=0
.ENDS
***************************************
.SUBCKT nor03_2x GND
** N=8 EP=1 IP=0 FDC=6
M0 Y A0 GND GND N L=4e-07 W=2.2e-06 AD=2.64e-12 AS=2.68e-12 $X=11500 $Y=18000 $D=1
M1 GND A1 Y GND N L=4e-07 W=2.2e-06 AD=2.96e-12 AS=2.64e-12 $X=19500 $Y=18000 $D=1
M2 Y A2 GND GND N L=4e-07 W=2.2e-06 AD=2.32e-12 AS=2.96e-12 $X=27500 $Y=18000 $D=1
M3 7 A0 VDD VDD P L=4e-07 W=8e-06 AD=4.8e-12 AS=9.16e-12 $X=11500 $Y=62000 $D=0
M4 8 A1 7 VDD P L=4e-07 W=8e-06 AD=4.8e-12 AS=4.8e-12 $X=16500 $Y=62000 $D=0
M5 Y A2 8 VDD P L=4e-07 W=8e-06 AD=8.8e-12 AS=4.8e-12 $X=21500 $Y=62000 $D=0
.ENDS
***************************************
.SUBCKT inv04 GND
** N=4 EP=1 IP=1 FDC=4
M0 Y A GND GND N L=4e-07 W=2e-06 AD=2.4e-12 AS=2.2e-12 $X=11500 $Y=26000 $D=1
M1 GND A Y GND N L=4e-07 W=2e-06 AD=2.2e-12 AS=2.4e-12 $X=19500 $Y=26000 $D=1
M2 Y A VDD VDD P L=4e-07 W=3.6e-06 AD=4.32e-12 AS=3.66e-12 $X=11500 $Y=71000 $D=0
M3 VDD A Y VDD P L=4e-07 W=3.6e-06 AD=3.66e-12 AS=4.32e-12 $X=19500 $Y=71000 $D=0
.ENDS
***************************************
.SUBCKT aoi21 GND
** N=8 EP=1 IP=2 FDC=6
M0 8 A1 GND GND N L=4e-07 W=2e-06 AD=1.2e-12 AS=2.2e-12 $X=11500 $Y=26000 $D=1
M1 Y A0 8 GND N L=4e-07 W=2e-06 AD=2.4e-12 AS=1.2e-12 $X=16500 $Y=26000 $D=1
M2 GND B0 Y GND N L=4e-07 W=1e-06 AD=1.1e-12 AS=2.4e-12 $X=25000 $Y=31000 $D=1
M3 VDD A1 7 VDD P L=4e-07 W=2.6e-06 AD=3.12e-12 AS=2.56e-12 $X=11500 $Y=76000 $D=0
M4 7 A0 VDD VDD P L=4e-07 W=2.6e-06 AD=3.12e-12 AS=3.12e-12 $X=19500 $Y=76000 $D=0
M5 Y B0 7 VDD P L=4e-07 W=2.6e-06 AD=2.56e-12 AS=3.12e-12 $X=27500 $Y=76000 $D=0
.ENDS
***************************************
.SUBCKT ICV_30 1
** N=2 EP=1 IP=4 FDC=40
X0 1 2 dffr $T=0 0 0 0 $X=0 $Y=0
X1 1 2 oai21 $T=184000 0 0 0 $X=184000 $Y=0
.ENDS
***************************************
.SUBCKT ICV_31 1
** N=2 EP=1 IP=4 FDC=42
X0 1 2 dffr $T=0 0 0 0 $X=0 $Y=0
X1 1 2 nand04 $T=233000 0 1 180 $X=184000 $Y=0
.ENDS
***************************************
.SUBCKT ICV_32 1
** N=2 EP=1 IP=4 FDC=76
X0 1 2 dffr $T=0 0 0 0 $X=0 $Y=0
X1 1 2 ICV_9 $T=184000 0 0 0 $X=184000 $Y=0
.ENDS
***************************************
.SUBCKT ICV_33 1
** N=2 EP=1 IP=4 FDC=40
X0 1 2 dffr $T=0 0 0 0 $X=0 $Y=0
X1 1 2 oai21 $T=225000 0 1 180 $X=184000 $Y=0
.ENDS
***************************************
.SUBCKT ICV_34 1 2
** N=2 EP=2 IP=4 FDC=114
X0 1 2 ICV_4 $T=0 0 0 0 $X=0 $Y=0
X1 1 2 ICV_19 $T=368000 0 0 0 $X=368000 $Y=0
.ENDS
***************************************
.SUBCKT nor04 GND VDD
** N=10 EP=2 IP=3 FDC=8
M0 GND A3 Y GND N L=4e-07 W=2e-06 AD=2.4e-12 AS=2.2e-12 $X=11500 $Y=21000 $D=1
M1 Y A2 GND GND N L=4e-07 W=2e-06 AD=2.4e-12 AS=2.4e-12 $X=19500 $Y=21000 $D=1
M2 GND A1 Y GND N L=4e-07 W=2e-06 AD=2.4e-12 AS=2.4e-12 $X=27500 $Y=21000 $D=1
M3 Y A0 GND GND N L=4e-07 W=2e-06 AD=2.2e-12 AS=2.4e-12 $X=35500 $Y=21000 $D=1
M4 8 A3 Y VDD P L=4e-07 W=7.2e-06 AD=4.32e-12 AS=7.82e-12 $X=17500 $Y=69000 $D=0
M5 9 A2 8 VDD P L=4e-07 W=7.2e-06 AD=4.32e-12 AS=4.32e-12 $X=22500 $Y=69000 $D=0
M6 10 A1 9 VDD P L=4e-07 W=7.2e-06 AD=4.32e-12 AS=4.32e-12 $X=27500 $Y=69000 $D=0
M7 VDD A0 10 VDD P L=4e-07 W=7.2e-06 AD=7.82e-12 AS=4.32e-12 $X=32500 $Y=69000 $D=0
.ENDS
***************************************
.SUBCKT ICV_35 1
** N=2 EP=1 IP=4 FDC=36
X0 1 2 inv02 $T=0 0 1 180 $X=-25000 $Y=0
X1 1 2 dffr $T=0 0 0 0 $X=0 $Y=0
.ENDS
***************************************
.SUBCKT or02 VDD GND
** N=7 EP=2 IP=2 FDC=6
M0 6 A1 GND GND N L=4e-07 W=1e-06 AD=1.2e-12 AS=1.1e-12 $X=11500 $Y=26000 $D=1
M1 GND A0 6 GND N L=4e-07 W=1e-06 AD=1.2e-12 AS=1.2e-12 $X=19500 $Y=26000 $D=1
M2 Y 6 GND GND N L=4e-07 W=1e-06 AD=1.1e-12 AS=1.2e-12 $X=27500 $Y=26000 $D=1
M3 7 A1 6 VDD P L=4e-07 W=2.6e-06 AD=1.56e-12 AS=2.56e-12 $X=11500 $Y=76000 $D=0
M4 VDD A0 7 VDD P L=4e-07 W=2.6e-06 AD=3.22e-12 AS=1.56e-12 $X=16500 $Y=76000 $D=0
M5 Y 6 VDD VDD P L=4e-07 W=1.8e-06 AD=1.58e-12 AS=3.22e-12 $X=25000 $Y=76000 $D=0
.ENDS
***************************************
.SUBCKT or03 GND VDD
** N=9 EP=2 IP=2 FDC=8
M0 GND 7 Y GND N L=4e-07 W=1e-06 AD=1.32e-12 AS=1.1e-12 $X=13500 $Y=26000 $D=1
M1 7 A2 GND GND N L=4e-07 W=1.2e-06 AD=1.44e-12 AS=1.32e-12 $X=21500 $Y=25000 $D=1
M2 GND A1 7 GND N L=4e-07 W=1.2e-06 AD=1.44e-12 AS=1.44e-12 $X=29500 $Y=25000 $D=1
M3 7 A0 GND GND N L=4e-07 W=1.2e-06 AD=1.22e-12 AS=1.44e-12 $X=37500 $Y=25000 $D=1
M4 VDD 7 Y VDD P L=4e-07 W=1.8e-06 AD=1.58e-12 AS=1.58e-12 $X=11500 $Y=80000 $D=0
M5 8 A2 7 VDD P L=4e-07 W=5.4e-06 AD=3.24e-12 AS=5.74e-12 $X=27500 $Y=73000 $D=0
M6 9 A1 8 VDD P L=4e-07 W=5.4e-06 AD=3.24e-12 AS=3.24e-12 $X=32500 $Y=73000 $D=0
M7 VDD A0 9 VDD P L=4e-07 W=5.4e-06 AD=5.74e-12 AS=3.24e-12 $X=37500 $Y=73000 $D=0
.ENDS
***************************************
.SUBCKT ICV_36 1
** N=3 EP=1 IP=4 FDC=18
X0 1 2 oai22 $T=-1000 0 1 180 $X=-50000 $Y=0
X1 1 3 xnor2 $T=0 0 0 0 $X=0 $Y=0
.ENDS
***************************************
.SUBCKT ICV_37 1
** N=3 EP=1 IP=4 FDC=12
X0 1 2 inv01 $T=-1000 0 1 180 $X=-26000 $Y=0
X1 1 3 xnor2 $T=0 0 0 0 $X=0 $Y=0
.ENDS
***************************************
.SUBCKT nand03 GND
** N=8 EP=1 IP=2 FDC=6
M0 7 A0 Y GND N L=4e-07 W=3e-06 AD=1.8e-12 AS=3.3e-12 $X=14500 $Y=26500 $D=1
M1 8 A1 7 GND N L=4e-07 W=3e-06 AD=1.8e-12 AS=1.8e-12 $X=19500 $Y=26500 $D=1